----------------------------------------QBlade Multi RE Polar File--------------------------------------------------
Generated with : QBlade CE v2.0.8.6_beta windows
Archive Format: 310035
Time : 14:38:44
Date : 16.05.2025

----------------------------------------Object Names----------------------------------------------------------------
IEA-15-240-RWT_AeroDyn15_Polar_23.dat                                  POLARNAME          - the polar name
../Airfoils/IEA-15-240-RWT_AF23_Coords.afl                             FOILNAME           - the airfoil name to which the polar(s) belong OR path to airfoil file

----------------------------------------Parameters------------------------------------------------------------------
29.3                                               THICKNESS          - the name of the blade
false                                              ISDECOMPOSED       - is the polar decomposed (imports Cl_Sep, Cl_att and f_st columns) [bool]
REYNOLDS            1.0000E+00          - the list of Reynolds numbers for the imported polars

----------------------------------------Polar Data------------------------------------------------------------------
AOA                 CL                  CD                  CM                  
-180.000000         0.000000            0.021737            0.000000            
-177.000000         0.084175            0.022924            0.120000            
-174.000000         0.168349            0.026089            0.240000            
-171.000000         0.252525            0.031202            0.360001            
-168.000000         0.336703            0.042658            0.400324            
-165.000000         0.420874            0.073490            0.400810            
-162.000000         0.505053            0.111219            0.401296            
-159.000000         0.589218            0.154959            0.408943            
-156.000000         0.673400            0.204087            0.430923            
-153.000000         0.757573            0.257766            0.452907            
-150.000000         0.841747            0.315782            0.472265            
-147.000000         0.882390            0.377890            0.465333            
-144.000000         0.836028            0.442173            0.455871            
-141.000000         0.794565            0.509378            0.446793            
-138.000000         0.754536            0.577683            0.439936            
-135.000000         0.715451            0.646749            0.434904            
-132.000000         0.675903            0.716008            0.429928            
-129.000000         0.634655            0.784296            0.427980            
-126.000000         0.592159            0.851237            0.427585            
-123.000000         0.548544            0.916497            0.428359            
-120.000000         0.502875            0.977981            0.429466            
-117.000000         0.455773            1.035972            0.430840            
-114.000000         0.407413            1.090387            0.432352            
-111.000000         0.357702            1.140229            0.433864            
-108.000000         0.306700            1.183348            0.433568            
-105.000000         0.255144            1.221408            0.432863            
-102.000000         0.203202            1.254228            0.431730            
-99.000000          0.151226            1.279328            0.429217            
-96.000000          0.099878            1.297178            0.424966            
-93.000000          0.049394            1.309016            0.420170            
-90.000000          0.000000            1.314769            0.415374            
-87.000000          -0.049394           1.309016            0.405487            
-84.000000          -0.099878           1.297178            0.395599            
-81.000000          -0.151226           1.279328            0.385300            
-78.000000          -0.203202           1.254228            0.373717            
-75.000000          -0.255144           1.221408            0.361153            
-72.000000          -0.306700           1.183348            0.348304            
-69.000000          -0.357702           1.140229            0.335225            
-66.000000          -0.407413           1.090387            0.321122            
-63.000000          -0.455773           1.035972            0.307018            
-60.000000          -0.502875           0.977981            0.292941            
-57.000000          -0.548544           0.916497            0.278916            
-54.000000          -0.592159           0.851237            0.264914            
-51.000000          -0.634655           0.784296            0.250992            
-48.000000          -0.675903           0.716008            0.237179            
-45.000000          -0.715451           0.646749            0.223578            
-42.000000          -0.747213           0.577683            0.209978            
-39.000000          -0.781339           0.509378            0.181915            
-36.000000          -0.818326           0.442173            0.134469            
-33.000000          -0.861667           0.377890            0.085190            
-30.000000          -0.977408           0.287915            0.055786            
-29.393940          -1.008334           0.266900            0.051875            
-28.787878          -1.039446           0.245712            0.047965            
-28.181818          -1.070760           0.224297            0.044056            
-27.575758          -1.079772           0.211454            0.040546            
-26.969696          -1.078937           0.202411            0.037215            
-26.363636          -1.078078           0.193356            0.033909            
-25.757576          -1.077719           0.184231            0.030550            
-25.151516          -1.077485           0.175097            0.027184            
-24.545454          -1.077834           0.165955            0.023818            
-23.939394          -1.078523           0.156914            0.020534            
-23.333334          -1.080413           0.148857            0.018004            
-22.727272          -1.082767           0.140772            0.015474            
-22.121212          -1.085784           0.132638            0.012943            
-21.515152          -1.089790           0.124414            0.010410            
-20.909090          -1.091846           0.116221            0.007868            
-20.303030          -1.093583           0.108218            0.005345            
-19.696970          -1.095015           0.100984            0.003487            
-19.090910          -1.096142           0.094519            0.002282            
-18.484848          -1.097269           0.088055            0.001081            
-17.878788          -1.097857           0.081762            -0.000002           
-17.272728          -1.096292           0.076160            -0.000607           
-16.666666          -1.094728           0.070557            -0.001217           
-16.060606          -1.093163           0.064954            -0.001832           
-15.454545          -1.096134           0.059709            -0.001758           
-14.848485          -1.099608           0.054503            -0.001607           
-14.242424          -1.104417           0.049297            -0.001458           
-13.636364          -1.104355           0.044464            -0.002007           
-13.030303          -1.100774           0.039794            -0.003023           
-12.424242          -1.096754           0.035157            -0.004188           
-11.818182          -1.077685           0.031017            -0.006932           
-11.212121          -1.025486           0.028014            -0.013647           
-10.606061          -0.973198           0.025028            -0.020285           
-10.000000          -0.919872           0.022060            -0.026922           
-9.393939           -0.851948           0.020464            -0.032444           
-8.787879           -0.783463           0.018885            -0.037785           
-8.181818           -0.714918           0.017284            -0.043097           
-7.575758           -0.641938           0.016089            -0.048046           
-6.969697           -0.568850           0.015073            -0.052789           
-6.363636           -0.495606           0.014057            -0.057500           
-5.757576           -0.418176           0.013242            -0.062314           
-5.151515           -0.334558           0.012730            -0.067331           
-4.545455           -0.250935           0.012218            -0.072350           
-3.939394           -0.167163           0.011735            -0.077296           
-3.333333           -0.082114           0.011513            -0.081546           
-2.727273           0.002944            0.011291            -0.085821           
-2.121212           0.088028            0.011069            -0.090103           
-1.515152           0.171837            0.010957            -0.093818           
-0.909091           0.254160            0.010881            -0.097350           
-0.303030           0.335814            0.010861            -0.100586           
0.303030            0.417257            0.010869            -0.103667           
0.909091            0.498307            0.010906            -0.106594           
1.515152            0.578570            0.010985            -0.109305           
2.121212            0.658524            0.011079            -0.111931           
2.727273            0.737778            0.011205            -0.114373           
3.333333            0.816537            0.011355            -0.116703           
3.939394            0.894892            0.011522            -0.118941           
4.545455            0.972326            0.011730            -0.121002           
5.151515            1.049295            0.011962            -0.122984           
5.757576            1.125172            0.012252            -0.124792           
6.363636            1.200305            0.012567            -0.126465           
6.969697            1.274941            0.012898            -0.128048           
7.575758            1.347803            0.013303            -0.129374           
8.181818            1.419877            0.013738            -0.130588           
8.787879            1.490325            0.014233            -0.131573           
9.393939            1.558555            0.014812            -0.132274           
10.000000           1.625594            0.015437            -0.132822           
10.606061           1.688103            0.016241            -0.132828           
11.212121           1.748422            0.017146            -0.132616           
11.818182           1.804681            0.018236            -0.131999           
12.424242           1.854830            0.019659            -0.130897           
13.030303           1.901923            0.021264            -0.129553           
13.636364           1.937912            0.023567            -0.127561           
14.242424           1.963993            0.026745            -0.125110           
14.848485           1.972607            0.031171            -0.121926           
15.454545           1.969937            0.036583            -0.119279           
16.060606           1.959931            0.042618            -0.116925           
16.666666           1.926292            0.050956            -0.115437           
17.272728           1.893015            0.059294            -0.113953           
17.878788           1.859914            0.067631            -0.112474           
18.484848           1.807471            0.078729            -0.112699           
19.090910           1.750292            0.090516            -0.113350           
19.696970           1.693234            0.102304            -0.114005           
20.303030           1.645589            0.114722            -0.116031           
20.909090           1.607326            0.127771            -0.119420           
21.515152           1.569140            0.140821            -0.122808           
22.121212           1.531042            0.153870            -0.126196           
22.727272           1.493047            0.166920            -0.129583           
23.333334           1.455171            0.179969            -0.132970           
23.939394           1.417435            0.193336            -0.136356           
24.545454           1.400108            0.205791            -0.139982           
25.151516           1.385411            0.218145            -0.143632           
25.757576           1.371550            0.230494            -0.147278           
26.363636           1.358390            0.242839            -0.150920           
26.969696           1.346569            0.254971            -0.154558           
27.575758           1.334195            0.267178            -0.158189           
28.181818           1.322187            0.279450            -0.161797           
28.787878           1.311726            0.291710            -0.165369           
29.393940           1.301413            0.303946            -0.168951           
30.000000           1.291245            0.316169            -0.172543           
33.000000           1.237410            0.377890            -0.190505           
36.000000           1.174714            0.442173            -0.208257           
39.000000           1.120539            0.509378            -0.225684           
42.000000           1.069895            0.577683            -0.240471           
45.000000           1.022072            0.646749            -0.253292           
48.000000           0.965575            0.716008            -0.266112           
51.000000           0.906650            0.784296            -0.278254           
54.000000           0.845941            0.851237            -0.290047           
57.000000           0.783634            0.916497            -0.301584           
60.000000           0.718393            0.977981            -0.313041           
63.000000           0.651104            1.035972            -0.324325           
66.000000           0.582018            1.090387            -0.335522           
69.000000           0.511002            1.140229            -0.346720           
72.000000           0.438142            1.183348            -0.357356           
75.000000           0.364491            1.221408            -0.367865           
78.000000           0.290288            1.254228            -0.378224           
81.000000           0.216038            1.279328            -0.388095           
84.000000           0.142682            1.297178            -0.397332           
87.000000           0.070563            1.309016            -0.406353           
90.000000           0.000000            1.314769            -0.415374           
93.000000           -0.049394           1.309016            -0.420170           
96.000000           -0.099878           1.297178            -0.424966           
99.000000           -0.151226           1.279328            -0.429217           
102.000000          -0.203202           1.254228            -0.431730           
105.000000          -0.255144           1.221408            -0.432863           
108.000000          -0.306700           1.183348            -0.433568           
111.000000          -0.357702           1.140229            -0.433864           
114.000000          -0.407413           1.090387            -0.432352           
117.000000          -0.455773           1.035972            -0.430840           
120.000000          -0.502875           0.977981            -0.429466           
123.000000          -0.548544           0.916497            -0.428359           
126.000000          -0.592159           0.851237            -0.427585           
129.000000          -0.634655           0.784296            -0.427980           
132.000000          -0.675903           0.716008            -0.429928           
135.000000          -0.715451           0.646749            -0.434904           
138.000000          -0.754536           0.577683            -0.439936           
141.000000          -0.794565           0.509378            -0.446793           
144.000000          -0.836028           0.442173            -0.455871           
147.000000          -0.882390           0.377890            -0.465333           
150.000000          -0.841747           0.315782            -0.472265           
153.000000          -0.757573           0.257765            -0.452907           
156.000000          -0.673398           0.204086            -0.430922           
159.000000          -0.589223           0.154961            -0.408945           
162.000000          -0.505048           0.111217            -0.421296           
165.000000          -0.420874           0.073490            -0.450810           
168.000000          -0.336699           0.042657            -0.480324           
171.000000          -0.252524           0.031202            -0.450000           
174.000000          -0.168349           0.026089            -0.300000           
177.000000          -0.084175           0.022924            -0.150000           
180.000000          0.000000            0.021737            0.000000            
