----------------------------------------QBlade Multi RE Polar File--------------------------------------------------
Generated with : QBlade CE v2.0.8.5_beta windows
Archive Format: 310035
Time : 11:15:48
Date : 05.03.2025

----------------------------------------Object Names----------------------------------------------------------------
IEA-15-240-RWT_AeroDyn15_Polar_19.dat                                  POLARNAME          - the polar name
../Airfoils/IEA-15-240-RWT_AF19_Coords.afl                             FOILNAME           - the airfoil name to which the polar(s) belong OR path to airfoil file

----------------------------------------Parameters------------------------------------------------------------------
30.4                                               THICKNESS          - the name of the blade
false                                              ISDECOMPOSED       - is the polar decomposed (imports Cl_Sep, Cl_att and f_st columns) [bool]
REYNOLDS            1.0000E+00          - the list of Reynolds numbers for the imported polars

----------------------------------------Polar Data------------------------------------------------------------------
AOA                 CL                  CD                  CM                  
-180.000000         0.000000            0.028027            0.000000            
-177.000000         0.088200            0.029181            0.120000            
-174.000000         0.176401            0.032258            0.240000            
-171.000000         0.264602            0.037228            0.360001            
-168.000000         0.352806            0.046545            0.402941            
-165.000000         0.441002            0.072863            0.407352            
-162.000000         0.529208            0.109658            0.411763            
-159.000000         0.617398            0.152673            0.422063            
-156.000000         0.705606            0.201172            0.444144            
-153.000000         0.793805            0.254219            0.466220            
-150.000000         0.882005            0.311576            0.485409            
-147.000000         0.922743            0.372990            0.475753            
-144.000000         0.868503            0.436563            0.463021            
-141.000000         0.820422            0.503031            0.450554            
-138.000000         0.774286            0.570591            0.441932            
-135.000000         0.729453            0.638905            0.435667            
-132.000000         0.685722            0.707414            0.429402            
-129.000000         0.642142            0.774965            0.426500            
-126.000000         0.597804            0.841187            0.425327            
-123.000000         0.552544            0.905748            0.425411            
-120.000000         0.505558            0.966577            0.425711            
-117.000000         0.457349            1.023954            0.426581            
-114.000000         0.408071            1.077797            0.427742            
-111.000000         0.357649            1.127119            0.428901            
-108.000000         0.306179            1.169795            0.428527            
-105.000000         0.254309            1.207470            0.427808            
-102.000000         0.202204            1.239963            0.426701            
-99.000000          0.150262            1.264825            0.424282            
-96.000000          0.099109            1.282517            0.420209            
-93.000000          0.048949            1.294267            0.415619            
-90.000000          0.000000            1.300000            0.411028            
-87.000000          -0.048949           1.294267            0.401433            
-84.000000          -0.099109           1.282517            0.391836            
-81.000000          -0.150262           1.264825            0.381845            
-78.000000          -0.202204           1.239963            0.370589            
-75.000000          -0.254309           1.207470            0.358325            
-72.000000          -0.306179           1.169795            0.345790            
-69.000000          -0.357649           1.127119            0.333043            
-66.000000          -0.408071           1.077797            0.319352            
-63.000000          -0.457349           1.023954            0.305661            
-60.000000          -0.505558           0.966577            0.292017            
-57.000000          -0.552544           0.905748            0.278388            
-54.000000          -0.597804           0.841187            0.264806            
-51.000000          -0.642142           0.774965            0.251308            
-48.000000          -0.685722           0.707414            0.237919            
-45.000000          -0.729453           0.638905            0.224737            
-42.000000          -0.793113           0.570591            0.211556            
-39.000000          -0.854376           0.503031            0.183235            
-36.000000          -0.913860           0.436563            0.134361            
-33.000000          -0.975692           0.372990            0.082749            
-30.000000          -1.094217           0.281297            0.053345            
-29.393940          -1.122227           0.260142            0.049630            
-28.787878          -1.149950           0.239274            0.045915            
-28.181818          -1.177358           0.218597            0.042201            
-27.575758          -1.185493           0.206039            0.038808            
-26.969696          -1.185296           0.196875            0.035553            
-26.363636          -1.184903           0.187891            0.032297            
-25.757576          -1.184314           0.178920            0.029041            
-25.151516          -1.183528           0.169956            0.025785            
-24.545454          -1.181377           0.161000            0.022529            
-23.939394          -1.178538           0.152208            0.019365            
-23.333334          -1.173525           0.144826            0.017039            
-22.727272          -1.168129           0.137470            0.014707            
-22.121212          -1.162187           0.130155            0.012371            
-21.515152          -1.155427           0.122917            0.010031            
-20.909090          -1.152079           0.115533            0.007692            
-20.303030          -1.148916           0.107936            0.005374            
-19.696970          -1.145090           0.101052            0.003552            
-19.090910          -1.140568           0.094826            0.002260            
-18.484848          -1.135822           0.088604            0.001001            
-17.878788          -1.130568           0.082545            -0.000138           
-17.272728          -1.123888           0.077134            -0.000773           
-16.666666          -1.117169           0.071725            -0.001411           
-16.060606          -1.110419           0.066316            -0.002051           
-15.454545          -1.105051           0.061410            -0.002070           
-14.848485          -1.099832           0.056559            -0.002021           
-14.242424          -1.094606           0.051708            -0.001975           
-13.636364          -1.088198           0.047220            -0.002321           
-13.030303          -1.080985           0.043021            -0.002981           
-12.424242          -1.073750           0.038803            -0.003377           
-11.818182          -1.054848           0.034956            -0.004972           
-11.212121          -1.007961           0.031993            -0.009439           
-10.606061          -0.960904           0.029016            -0.013907           
-10.000000          -0.913654           0.026023            -0.018611           
-9.393939           -0.845558           0.024146            -0.024976           
-8.787879           -0.777440           0.022267            -0.031266           
-8.181818           -0.709273           0.020386            -0.037488           
-7.575758           -0.638320           0.018949            -0.043001           
-6.969697           -0.565120           0.017702            -0.048246           
-6.363636           -0.491919           0.016454            -0.053519           
-5.757576           -0.414548           0.015438            -0.058943           
-5.151515           -0.330920           0.014769            -0.064548           
-4.545455           -0.247284           0.014100            -0.070150           
-3.939394           -0.163320           0.013469            -0.075695           
-3.333333           -0.076477           0.013181            -0.080768           
-2.727273           0.010398            0.012893            -0.085819           
-2.121212           0.097301            0.012605            -0.090958           
-1.515152           0.183411            0.012452            -0.095566           
-0.909091           0.269751            0.012345            -0.099846           
-0.303030           0.355015            0.012301            -0.103733           
0.303030            0.439595            0.012291            -0.107423           
0.909091            0.523513            0.012314            -0.110906           
1.515152            0.606414            0.012382            -0.114098           
2.121212            0.688902            0.012467            -0.117179           
2.727273            0.770479            0.012590            -0.120016           
3.333333            0.851432            0.012739            -0.122707           
3.939394            0.931874            0.012911            -0.125279           
4.545455            1.011222            0.013127            -0.127624           
5.151515            1.090126            0.013360            -0.129883           
5.757576            1.168068            0.013629            -0.131956           
6.363636            1.245065            0.013940            -0.133863           
6.969697            1.321434            0.014279            -0.135660           
7.575758            1.395803            0.014697            -0.137156           
8.181818            1.469312            0.015147            -0.138523           
8.787879            1.541059            0.015663            -0.139625           
9.393939            1.610407            0.016269            -0.140399           
10.000000           1.678501            0.016925            -0.140998           
10.606061           1.742243            0.017785            -0.141055           
11.212121           1.804431            0.018767            -0.140913           
11.818182           1.860049            0.019972            -0.140401           
12.424242           1.907371            0.021631            -0.139501           
13.030303           1.950408            0.023542            -0.138418           
13.636364           1.977134            0.026635            -0.137068           
14.242424           1.996940            0.030238            -0.135661           
14.848485           2.008411            0.034558            -0.134128           
15.454545           2.012259            0.040033            -0.132547           
16.060606           2.012450            0.046020            -0.130943           
16.666666           2.000851            0.053491            -0.129224           
17.272728           1.988953            0.060990            -0.127497           
17.878788           1.976910            0.068511            -0.125762           
18.484848           1.937701            0.078948            -0.124783           
19.090910           1.891617            0.090123            -0.124016           
19.696970           1.845434            0.101310            -0.123261           
20.303030           1.804362            0.113338            -0.124272           
20.909090           1.768427            0.126203            -0.127054           
21.515152           1.732428            0.139077            -0.129840           
22.121212           1.696356            0.151964            -0.132630           
22.727272           1.660200            0.164866            -0.135425           
23.333334           1.623945            0.177791            -0.138227           
23.939394           1.587575            0.190198            -0.141034           
24.545454           1.571679            0.202545            -0.144768           
25.151516           1.557426            0.214886            -0.148607           
25.757576           1.541416            0.227231            -0.152448           
26.363636           1.525040            0.239580            -0.156291           
26.969696           1.508262            0.251934            -0.160137           
27.575758           1.491038            0.264293            -0.163986           
28.181818           1.475865            0.276518            -0.167658           
28.787878           1.466300            0.288436            -0.170909           
29.393940           1.455994            0.300374            -0.174152           
30.000000           1.444150            0.312325            -0.177387           
33.000000           1.377484            0.372990            -0.193729           
36.000000           1.291095            0.436563            -0.211232           
39.000000           1.209491            0.503031            -0.228394           
42.000000           1.126780            0.570591            -0.242766           
45.000000           1.042076            0.638905            -0.255055           
48.000000           0.979602            0.707414            -0.267347           
51.000000           0.917346            0.774965            -0.278965           
54.000000           0.854006            0.841187            -0.290239           
57.000000           0.789348            0.905748            -0.301263           
60.000000           0.722225            0.966577            -0.312244           
63.000000           0.653355            1.023954            -0.323122           
66.000000           0.582958            1.077797            -0.333852           
69.000000           0.510928            1.127119            -0.344582           
72.000000           0.437399            1.169795            -0.354863           
75.000000           0.363299            1.207470            -0.365043           
78.000000           0.288864            1.239963            -0.375092           
81.000000           0.214661            1.264825            -0.384644           
84.000000           0.141585            1.282517            -0.393569           
87.000000           0.069926            1.294267            -0.402299           
90.000000           0.000000            1.300000            -0.411028           
93.000000           -0.048949           1.294267            -0.415619           
96.000000           -0.099109           1.282517            -0.420209           
99.000000           -0.150262           1.264825            -0.424282           
102.000000          -0.202204           1.239963            -0.426701           
105.000000          -0.254309           1.207470            -0.427808           
108.000000          -0.306179           1.169795            -0.428527           
111.000000          -0.357649           1.127119            -0.428901           
114.000000          -0.408071           1.077797            -0.427742           
117.000000          -0.457349           1.023954            -0.426581           
120.000000          -0.505558           0.966577            -0.425711           
123.000000          -0.552544           0.905748            -0.425411           
126.000000          -0.597804           0.841187            -0.425327           
129.000000          -0.642142           0.774965            -0.426500           
132.000000          -0.685722           0.707414            -0.429402           
135.000000          -0.729453           0.638905            -0.435667           
138.000000          -0.774286           0.570591            -0.441932           
141.000000          -0.820422           0.503031            -0.450554           
144.000000          -0.868503           0.436563            -0.463021           
147.000000          -0.922743           0.372990            -0.475753           
150.000000          -0.882005           0.311576            -0.485409           
153.000000          -0.793804           0.254218            -0.466219           
156.000000          -0.705604           0.201171            -0.444143           
159.000000          -0.617403           0.152675            -0.422064           
162.000000          -0.529203           0.109656            -0.431763           
165.000000          -0.441002           0.072863            -0.457352           
168.000000          -0.352802           0.046544            -0.482941           
171.000000          -0.264601           0.037228            -0.450000           
174.000000          -0.176401           0.032258            -0.300000           
177.000000          -0.088200           0.029181            -0.150000           
180.000000          0.000000            0.028027            0.000000            
