----------------------------------------QBlade Multi RE Polar File--------------------------------------------------
Generated with : QBlade CE v2.0.8.5_beta windows
Archive Format: 310035
Time : 11:15:48
Date : 05.03.2025

----------------------------------------Object Names----------------------------------------------------------------
IEA-15-240-RWT_AeroDyn15_Polar_09.dat                                  POLARNAME          - the polar name
../Airfoils/IEA-15-240-RWT_AF09_Coords.afl                             FOILNAME           - the airfoil name to which the polar(s) belong OR path to airfoil file

----------------------------------------Parameters------------------------------------------------------------------
44.3                                               THICKNESS          - the name of the blade
false                                              ISDECOMPOSED       - is the polar decomposed (imports Cl_Sep, Cl_att and f_st columns) [bool]
REYNOLDS            1.0000E+00          - the list of Reynolds numbers for the imported polars

----------------------------------------Polar Data------------------------------------------------------------------
AOA                 CL                  CD                  CM                  
-180.000000         0.000000            0.059486            0.000000            
-177.000000         0.116905            0.060097            0.108615            
-174.000000         0.234657            0.061730            0.217752            
-171.000000         0.352410            0.064385            0.326888            
-168.000000         0.469984            0.072249            0.362646            
-165.000000         0.587464            0.089012            0.361543            
-162.000000         0.704949            0.115408            0.360259            
-159.000000         0.802220            0.148705            0.361996            
-156.000000         0.858396            0.197899            0.369831            
-153.000000         0.912650            0.249114            0.377414            
-150.000000         0.961862            0.302247            0.383329            
-147.000000         0.957524            0.363901            0.367775            
-144.000000         0.897538            0.428649            0.350264            
-141.000000         0.842142            0.493545            0.332479            
-138.000000         0.791310            0.560171            0.322026            
-135.000000         0.743200            0.627742            0.315710            
-132.000000         0.695898            0.695344            0.309406            
-129.000000         0.648660            0.761900            0.306217            
-126.000000         0.601240            0.826773            0.306310            
-123.000000         0.553522            0.890644            0.307145            
-120.000000         0.505115            0.952238            0.308209            
-117.000000         0.455124            1.007601            0.310685            
-114.000000         0.404684            1.060819            0.313408            
-111.000000         0.353770            1.111261            0.316125            
-108.000000         0.302150            1.153399            0.317829            
-105.000000         0.250291            1.190364            0.319164            
-102.000000         0.198448            1.224119            0.320343            
-99.000000          0.147251            1.250547            0.320327            
-96.000000          0.097372            1.267436            0.318347            
-93.000000          0.048237            1.280593            0.316143            
-90.000000          -0.000002           1.289894            0.313937            
-87.000000          -0.048238           1.280593            0.305824            
-84.000000          -0.097373           1.267436            0.297710            
-81.000000          -0.147251           1.250548            0.289419            
-78.000000          -0.198448           1.224119            0.279557            
-75.000000          -0.250290           1.190364            0.268738            
-72.000000          -0.302150           1.153399            0.257798            
-69.000000          -0.353766           1.111262            0.246622            
-66.000000          -0.404669           1.060818            0.234770            
-63.000000          -0.455098           1.007600            0.222911            
-60.000000          -0.505078           0.952235            0.211091            
-57.000000          -0.553496           0.890642            0.199528            
-54.000000          -0.601225           0.826773            0.187959            
-51.000000          -0.648656           0.761901            0.176419            
-48.000000          -0.695898           0.695346            0.165778            
-45.000000          -0.743199           0.627743            0.155667            
-42.000000          -0.828810           0.560173            0.145551            
-39.000000          -0.917142           0.493546            0.127474            
-36.000000          -1.010037           0.428650            0.096957            
-33.000000          -1.107523           0.363903            0.064976            
-30.000000          -1.205980           0.285483            0.048375            
-29.393940          -1.219387           0.268922            0.044853            
-28.787878          -1.233874           0.253116            0.041330            
-28.181818          -1.248806           0.237425            0.037808            
-27.575758          -1.256087           0.226791            0.034457            
-26.969696          -1.260386           0.218333            0.031180            
-26.363636          -1.265072           0.210632            0.027903            
-25.757576          -1.270105           0.202917            0.024626            
-25.151516          -1.275445           0.195163            0.021350            
-24.545454          -1.275374           0.187374            0.018073            
-23.939394          -1.273573           0.179542            0.014822            
-23.333334          -1.271299           0.171607            0.011812            
-22.727272          -1.269185           0.163700            0.008801            
-22.121212          -1.267237           0.155819            0.005791            
-21.515152          -1.264772           0.147963            0.002716            
-20.909090          -1.261946           0.140130            -0.000689           
-20.303030          -1.259119           0.132321            -0.003989           
-19.696970          -1.251726           0.125747            -0.007842           
-19.090910          -1.233912           0.121718            -0.009143           
-18.484848          -1.227795           0.116647            -0.010494           
-17.878788          -1.200947           0.112445            -0.011722           
-17.272728          -1.172527           0.107758            -0.012793           
-16.666666          -1.144302           0.103097            -0.013805           
-16.060606          -1.110976           0.098979            -0.014759           
-15.454545          -1.082879           0.094616            -0.015452           
-14.848485          -1.053459           0.090448            -0.016115           
-14.242424          -1.021054           0.086565            -0.016686           
-13.636364          -0.990011           0.082734            -0.017213           
-13.030303          -0.961401           0.078846            -0.017392           
-12.424242          -0.927361           0.075412            -0.017783           
-11.818182          -0.896648           0.071793            -0.017930           
-11.212121          -0.863353           0.068574            -0.017733           
-10.606061          -0.834648           0.065049            -0.016754           
-10.000000          -0.806976           0.061725            -0.014957           
-9.393939           -0.751407           0.059169            -0.018905           
-8.787879           -0.690870           0.056649            -0.024006           
-8.181818           -0.625864           0.054230            -0.029767           
-7.575758           -0.552472           0.052555            -0.036124           
-6.969697           -0.474102           0.051121            -0.042966           
-6.363636           -0.394429           0.049700            -0.049975           
-5.757576           -0.315061           0.048565            -0.056297           
-5.151515           -0.233419           0.047631            -0.062726           
-4.545455           -0.152233           0.046743            -0.068731           
-3.939394           -0.071200           0.045940            -0.074275           
-3.333333           0.011761            0.045537            -0.079494           
-2.727273           0.090051            0.045217            -0.084119           
-2.121212           0.167844            0.044896            -0.089058           
-1.515152           0.244888            0.044681            -0.094214           
-0.909091           0.325499            0.044613            -0.099079           
-0.303030           0.407566            0.044560            -0.103394           
0.303030            0.489985            0.044581            -0.107558           
0.909091            0.572681            0.044622            -0.111542           
1.515152            0.654723            0.044728            -0.115210           
2.121212            0.735995            0.044848            -0.118754           
2.727273            0.816581            0.045029            -0.121913           
3.333333            0.896424            0.045271            -0.124970           
3.939394            0.975758            0.045468            -0.127809           
4.545455            1.053915            0.045777            -0.130426           
5.151515            1.131598            0.046115            -0.132834           
5.757576            1.208148            0.046446            -0.135007           
6.363636            1.283558            0.046915            -0.136939           
6.969697            1.358290            0.047361            -0.138687           
7.575758            1.430946            0.047931            -0.140089           
8.181818            1.501968            0.048613            -0.141141           
8.787879            1.571363            0.049378            -0.141952           
9.393939            1.636893            0.050374            -0.142321           
10.000000           1.698882            0.051479            -0.142266           
10.606061           1.755471            0.053203            -0.141746           
11.212121           1.804488            0.055399            -0.139961           
11.818182           1.836376            0.058520            -0.137655           
12.424242           1.864631            0.062462            -0.135547           
13.030303           1.894334            0.066643            -0.133869           
13.636364           1.917444            0.071451            -0.131555           
14.242424           1.941353            0.076332            -0.129442           
14.848485           1.969456            0.080854            -0.127998           
15.454545           1.991986            0.086045            -0.126467           
16.060606           2.008321            0.092008            -0.124853           
16.666666           2.012486            0.099791            -0.123559           
17.272728           2.018600            0.107328            -0.122468           
17.878788           1.990727            0.115763            -0.121386           
18.484848           1.959282            0.124857            -0.121402           
19.090910           1.930503            0.133815            -0.121898           
19.696970           1.900368            0.142922            -0.122592           
20.303030           1.874359            0.152069            -0.124092           
20.909090           1.853523            0.161105            -0.126088           
21.515152           1.835018            0.169887            -0.128302           
22.121212           1.819941            0.178255            -0.130765           
22.727272           1.807184            0.186418            -0.133440           
23.333334           1.795066            0.194701            -0.136190           
23.939394           1.783033            0.202954            -0.139157           
24.545454           1.773980            0.212155            -0.143142           
25.151516           1.759329            0.222472            -0.147741           
25.757576           1.737656            0.233165            -0.152524           
26.363636           1.715857            0.243936            -0.157276           
26.969696           1.694141            0.254655            -0.161996           
27.575758           1.672480            0.265353            -0.166666           
28.181818           1.650755            0.276055            -0.171261           
28.787878           1.632997            0.286766            -0.175778           
29.393940           1.619640            0.297555            -0.180291           
30.000000           1.604187            0.308899            -0.183815           
33.000000           1.513993            0.368446            -0.199537           
36.000000           1.391516            0.431653            -0.215323           
39.000000           1.275523            0.495779            -0.230888           
42.000000           1.166427            0.561859            -0.243108           
45.000000           1.060789            0.628763            -0.253470           
48.000000           0.993791            0.695751            -0.263803           
51.000000           0.926658            0.761901            -0.273821           
54.000000           0.858919            0.826773            -0.283566           
57.000000           0.790756            0.890642            -0.293184           
60.000000           0.721609            0.952235            -0.302807           
63.000000           0.650191            1.007600            -0.312622           
66.000000           0.578133            1.060818            -0.322049           
69.000000           0.505397            1.111262            -0.331512           
72.000000           0.431655            1.153399            -0.340914           
75.000000           0.357571            1.190364            -0.350321           
78.000000           0.283512            1.224119            -0.359691           
81.000000           0.210373            1.250548            -0.368680           
84.000000           0.139114            1.267436            -0.377076           
87.000000           0.068917            1.280593            -0.385384           
90.000000           0.000002            1.289894            -0.393701           
93.000000           -0.048237           1.280593            -0.397378           
96.000000           -0.097373           1.267436            -0.401054           
99.000000           -0.147251           1.250547            -0.404448           
102.000000          -0.198449           1.224119            -0.405949           
105.000000          -0.250291           1.190364            -0.406236           
108.000000          -0.302151           1.153399            -0.406328           
111.000000          -0.353767           1.111261            -0.406060           
114.000000          -0.404669           1.060819            -0.404698           
117.000000          -0.455096           1.007601            -0.403336           
120.000000          -0.505076           0.952238            -0.402249           
123.000000          -0.553494           0.890644            -0.402448           
126.000000          -0.601224           0.826773            -0.402904           
129.000000          -0.648657           0.761900            -0.404247           
132.000000          -0.695899           0.695344            -0.408819           
135.000000          -0.743200           0.627742            -0.416773           
138.000000          -0.791311           0.560171            -0.424766           
141.000000          -0.842143           0.493545            -0.436978           
144.000000          -0.897538           0.428649            -0.456335           
147.000000          -0.957525           0.363901            -0.475384           
150.000000          -0.961862           0.302247            -0.491770           
153.000000          -0.912650           0.249114            -0.489622           
156.000000          -0.858395           0.197899            -0.486991           
159.000000          -0.802223           0.148706            -0.484276           
162.000000          -0.704935           0.115407            -0.474594           
165.000000          -0.587436           0.089012            -0.461366           
168.000000          -0.469937           0.072249            -0.458833           
171.000000          -0.352359           0.064385            -0.408596           
174.000000          -0.234623           0.061730            -0.272179           
177.000000          -0.116888           0.060097            -0.135762           
180.000000          0.000000            0.059486            0.000000            
