----------------------------------------QBlade Multi RE Polar File--------------------------------------------------
Generated with : QBlade CE v2.0.8.5_beta windows
Archive Format: 310035
Time : 11:15:48
Date : 05.03.2025

----------------------------------------Object Names----------------------------------------------------------------
IEA-15-240-RWT_AeroDyn15_Polar_14.dat                                  POLARNAME          - the polar name
../Airfoils/IEA-15-240-RWT_AF14_Coords.afl                             FOILNAME           - the airfoil name to which the polar(s) belong OR path to airfoil file

----------------------------------------Parameters------------------------------------------------------------------
33.2                                               THICKNESS          - the name of the blade
false                                              ISDECOMPOSED       - is the polar decomposed (imports Cl_Sep, Cl_att and f_st columns) [bool]
REYNOLDS            1.0000E+00          - the list of Reynolds numbers for the imported polars

----------------------------------------Polar Data------------------------------------------------------------------
AOA                 CL                  CD                  CM                  
-180.000000         0.000000            0.033983            0.000000            
-177.000000         0.092608            0.035136            0.120000            
-174.000000         0.185213            0.038214            0.240000            
-171.000000         0.277819            0.043187            0.360001            
-168.000000         0.370429            0.051077            0.404360            
-165.000000         0.463030            0.072726            0.410899            
-162.000000         0.555641            0.109959            0.417439            
-159.000000         0.648313            0.153290            0.429382            
-156.000000         0.741289            0.201818            0.452134            
-153.000000         0.834622            0.254869            0.474881            
-150.000000         0.928918            0.312220            0.494527            
-147.000000         0.971847            0.373621            0.483182            
-144.000000         0.911336            0.437178            0.468937            
-141.000000         0.858136            0.503625            0.455355            
-138.000000         0.807521            0.571161            0.445269            
-135.000000         0.758853            0.639450            0.437791            
-132.000000         0.711384            0.707931            0.430312            
-129.000000         0.663901            0.775452            0.426555            
-126.000000         0.616031            0.841642            0.424713            
-123.000000         0.567585            0.906172            0.424236            
-120.000000         0.517883            0.966966            0.423971            
-117.000000         0.467251            1.024308            0.424556            
-114.000000         0.415810            1.078114            0.425556            
-111.000000         0.363512            1.127399            0.426559            
-108.000000         0.310502            1.170036            0.426217            
-105.000000         0.257313            1.207672            0.425569            
-102.000000         0.204104            1.240126            0.424561            
-99.000000          0.151348            1.264947            0.422277            
-96.000000          0.099632            1.282599            0.418386            
-93.000000          0.049110            1.294308            0.413994            
-90.000000          0.000000            1.300000            0.409604            
-87.000000          -0.049110           1.294308            0.400233            
-84.000000          -0.099632           1.282599            0.390864            
-81.000000          -0.151348           1.264947            0.381116            
-78.000000          -0.204104           1.240126            0.370125            
-75.000000          -0.257313           1.207672            0.358108            
-72.000000          -0.310502           1.170036            0.345830            
-69.000000          -0.363512           1.127399            0.333353            
-66.000000          -0.415810           1.078114            0.319995            
-63.000000          -0.467251           1.024308            0.306635            
-60.000000          -0.517883           0.966966            0.293342            
-57.000000          -0.567585           0.906172            0.280353            
-54.000000          -0.616031           0.841642            0.267426            
-51.000000          -0.663901           0.775452            0.254577            
-48.000000          -0.711384           0.707931            0.241840            
-45.000000          -0.758853           0.639450            0.229326            
-42.000000          -0.845021           0.571161            0.216810            
-39.000000          -0.933136           0.503625            0.186873            
-36.000000          -1.023836           0.437178            0.134220            
-33.000000          -1.121847           0.373621            0.078229            
-30.000000          -1.253756           0.279061            0.047384            
-29.393940          -1.286257           0.256956            0.043857            
-28.787878          -1.318536           0.234578            0.040332            
-28.181818          -1.350715           0.212212            0.036806            
-27.575758          -1.359863           0.199898            0.033642            
-26.969696          -1.354959           0.191915            0.030633            
-26.363636          -1.349463           0.183570            0.027624            
-25.757576          -1.343381           0.175224            0.024616            
-25.151516          -1.336719           0.166890            0.021609            
-24.545454          -1.324822           0.158567            0.018604            
-23.939394          -1.310830           0.150415            0.015683            
-23.333334          -1.293044           0.143723            0.013518            
-22.727272          -1.275199           0.137032            0.011359            
-22.121212          -1.257291           0.130340            0.009207            
-21.515152          -1.239798           0.123648            0.007090            
-20.909090          -1.220440           0.117110            0.005014            
-20.303030          -1.201172           0.110636            0.002886            
-19.696970          -1.180922           0.104648            0.001144            
-19.090910          -1.159726           0.099211            -0.000379           
-18.484848          -1.138795           0.093777            -0.001941           
-17.878788          -1.118000           0.088418            -0.003392           
-17.272728          -1.097041           0.083387            -0.004408           
-16.666666          -1.076127           0.078354            -0.005425           
-16.060606          -1.055250           0.073315            -0.006441           
-15.454545          -1.037090           0.068549            -0.006839           
-14.848485          -1.019238           0.063812            -0.007165           
-14.242424          -1.001393           0.059072            -0.007494           
-13.636364          -0.985583           0.054595            -0.007258           
-13.030303          -0.971146           0.050295            -0.006594           
-12.424242          -0.956736           0.045992            -0.006095           
-11.818182          -0.939750           0.041923            -0.006340           
-11.212121          -0.917007           0.038398            -0.007991           
-10.606061          -0.894079           0.034874            -0.009723           
-10.000000          -0.871677           0.031348            -0.011232           
-9.393939           -0.809353           0.028942            -0.017057           
-8.787879           -0.747477           0.026538            -0.022989           
-8.181818           -0.685853           0.024138            -0.029020           
-7.575758           -0.614382           0.022343            -0.035491           
-6.969697           -0.538829           0.020809            -0.042123           
-6.363636           -0.463327           0.019275            -0.048756           
-5.757576           -0.385163           0.018000            -0.055174           
-5.151515           -0.303122           0.017112            -0.061274           
-4.545455           -0.221035           0.016225            -0.067379           
-3.939394           -0.138178           0.015390            -0.073475           
-3.333333           -0.048807           0.015015            -0.079428           
-2.727273           0.040645            0.014640            -0.085406           
-2.121212           0.130168            0.014265            -0.091273           
-1.515152           0.220358            0.014065            -0.096537           
-0.909091           0.310166            0.013923            -0.101763           
-0.303030           0.398928            0.013859            -0.106668           
0.303030            0.487046            0.013834            -0.111308           
0.909091            0.574519            0.013847            -0.115694           
1.515152            0.660704            0.013917            -0.119666           
2.121212            0.746367            0.014010            -0.123477           
2.727273            0.830846            0.014149            -0.126944           
3.333333            0.914506            0.014321            -0.130203           
3.939394            0.997496            0.014519            -0.133293           
4.545455            1.079008            0.014774            -0.136054           
5.151515            1.159917            0.015050            -0.138688           
5.757576            1.239506            0.015375            -0.141054           
6.363636            1.317806            0.015747            -0.143189           
6.969697            1.395246            0.016150            -0.145170           
7.575758            1.469899            0.016653            -0.146710           
8.181818            1.543275            0.017204            -0.148070           
8.787879            1.614017            0.017855            -0.149068           
9.393939            1.681369            0.018654            -0.149692           
10.000000           1.746849            0.019531            -0.150114           
10.606061           1.804385            0.020814            -0.149944           
11.212121           1.856892            0.022374            -0.149595           
11.818182           1.906616            0.024456            -0.148916           
12.424242           1.946961            0.027474            -0.148042           
13.030303           1.981454            0.031020            -0.147043           
13.636364           1.997513            0.036342            -0.145222           
14.242424           2.011478            0.042010            -0.143646           
14.848485           2.021699            0.048162            -0.142488           
15.454545           2.029219            0.054658            -0.141171           
16.060606           2.034146            0.061422            -0.139803           
16.666666           2.022772            0.069562            -0.138531           
17.272728           2.010988            0.077707            -0.137259           
17.878788           1.999884            0.085800            -0.135986           
18.484848           1.972734            0.096062            -0.136005           
19.090910           1.941385            0.106880            -0.136295           
19.696970           1.910036            0.117686            -0.136535           
20.303030           1.884933            0.128789            -0.137805           
20.909090           1.866078            0.140197            -0.140134           
21.515152           1.847223            0.151618            -0.142459           
22.121212           1.828367            0.163068            -0.144778           
22.727272           1.809512            0.174436            -0.147090           
23.333334           1.790657            0.185643            -0.149394           
23.939394           1.771802            0.197166            -0.151690           
24.545454           1.766010            0.208889            -0.155275           
25.151516           1.754367            0.220634            -0.159000           
25.757576           1.737043            0.232379            -0.162722           
26.363636           1.719718            0.244124            -0.166441           
26.969696           1.702393            0.255869            -0.170156           
27.575758           1.685069            0.267614            -0.173868           
28.181818           1.668891            0.279317            -0.177450           
28.787878           1.653658            0.290923            -0.180737           
29.393940           1.638174            0.302529            -0.184023           
30.000000           1.625142            0.314136            -0.187310           
33.000000           1.538353            0.373621            -0.203751           
36.000000           1.414408            0.437178            -0.220534           
39.000000           1.300908            0.503625            -0.236954           
42.000000           1.191101            0.571161            -0.250449           
45.000000           1.084075            0.639450            -0.261764           
48.000000           1.016263            0.707931            -0.273077           
51.000000           0.948430            0.775452            -0.283769           
54.000000           0.880044            0.841642            -0.294139           
57.000000           0.810836            0.906172            -0.304274           
60.000000           0.739833            0.966966            -0.314394           
63.000000           0.667501            1.024308            -0.324499           
66.000000           0.594015            1.078114            -0.334793           
69.000000           0.519303            1.127399            -0.345079           
72.000000           0.443574            1.170036            -0.355021           
75.000000           0.367590            1.207672            -0.364882           
78.000000           0.291577            1.240126            -0.374626           
81.000000           0.216211            1.264947            -0.383873           
84.000000           0.142331            1.282599            -0.392519           
87.000000           0.070156            1.294308            -0.400992           
90.000000           0.000000            1.300000            -0.409466           
93.000000           -0.049110           1.294308            -0.413846           
96.000000           -0.099632           1.282599            -0.418227           
99.000000           -0.151348           1.264947            -0.422106           
102.000000          -0.204104           1.240126            -0.424384           
105.000000          -0.257313           1.207672            -0.425387           
108.000000          -0.310502           1.170036            -0.426029           
111.000000          -0.363512           1.127399            -0.426369           
114.000000          -0.415810           1.078114            -0.425368           
117.000000          -0.467251           1.024308            -0.424370           
120.000000          -0.517883           0.966966            -0.423794           
123.000000          -0.567585           0.906172            -0.424071           
126.000000          -0.616031           0.841642            -0.424566           
129.000000          -0.663901           0.775452            -0.426433           
132.000000          -0.711384           0.707931            -0.430211           
135.000000          -0.758853           0.639450            -0.437723           
138.000000          -0.807521           0.571161            -0.445227           
141.000000          -0.858136           0.503625            -0.455335           
144.000000          -0.911336           0.437178            -0.468934           
147.000000          -0.971847           0.373621            -0.483182           
150.000000          -0.928918           0.312220            -0.494527           
153.000000          -0.834621           0.254868            -0.474705           
156.000000          -0.741287           0.201816            -0.451999           
159.000000          -0.648319           0.153292            -0.429306           
162.000000          -0.555636           0.109957            -0.437394           
165.000000          -0.463030           0.072726            -0.460884           
168.000000          -0.370424           0.051076            -0.484360           
171.000000          -0.277819           0.043187            -0.450000           
174.000000          -0.185213           0.038214            -0.300000           
177.000000          -0.092608           0.035136            -0.150000           
180.000000          0.000000            0.033983            0.000000            
