----------------------------------------QBlade Multi RE Polar File--------------------------------------------------
Generated with : QBlade CE v2.0.8.3_beta windows
Archive Format: 310035
Time : 18:03:11
Date : 07.02.2025

----------------------------------------Object Names----------------------------------------------------------------
IEA-15-240-RWT_AeroDyn15_Polar_27.dat                                  POLARNAME          - the polar name
../Airfoils/IEA-15-240-RWT_AF27_Coords.afl                             FOILNAME           - the airfoil name to which the polar(s) belong OR path to airfoil file

----------------------------------------Parameters------------------------------------------------------------------
26.6                                               THICKNESS          - the name of the blade
false                                              ISDECOMPOSED       - is the polar decomposed (imports Cl_Sep, Cl_att and f_st columns) [bool]
REYNOLDS            1.0000E+00          - the list of Reynolds numbers for the imported polars

----------------------------------------Polar Data------------------------------------------------------------------
AOA                 CL                  CD                  CM                  
-180.000000         0.000000            0.014732            0.000000            
-177.000000         0.080918            0.016019            0.120000            
-174.000000         0.161836            0.019453            0.240000            
-171.000000         0.242755            0.025001            0.360001            
-168.000000         0.323676            0.038260            0.397738            
-165.000000         0.404590            0.072270            0.394345            
-162.000000         0.485513            0.112633            0.390951            
-159.000000         0.566422            0.159619            0.396193            
-156.000000         0.647347            0.212521            0.418710            
-153.000000         0.728263            0.270379            0.441225            
-150.000000         0.809181            0.332948            0.461410            
-147.000000         0.850853            0.399960            0.458301            
-144.000000         0.814033            0.469341            0.452879            
-141.000000         0.780139            0.541902            0.447653            
-138.000000         0.746550            0.615671            0.444185            
-135.000000         0.712825            0.690281            0.442799            
-132.000000         0.677681            0.765122            0.441324            
-129.000000         0.640384            0.838942            0.442090            
-126.000000         0.601726            0.911329            0.444012            
-123.000000         0.561048            0.981923            0.446768            
-120.000000         0.517212            1.048471            0.449471            
-117.000000         0.471252            1.111273            0.452058            
-114.000000         0.423425            1.170238            0.454587            
-111.000000         0.373583            1.224292            0.457115            
-108.000000         0.321692            1.271121            0.457372            
-105.000000         0.268774            1.312514            0.457116            
-102.000000         0.215019            1.348272            0.456353            
-99.000000          0.160661            1.375729            0.454039            
-96.000000          0.106489            1.395386            0.449772            
-93.000000          0.052854            1.408577            0.444895            
-90.000000          0.000000            1.415220            0.440018            
-87.000000          -0.052854           1.408577            0.429409            
-84.000000          -0.106489           1.395386            0.418801            
-81.000000          -0.160661           1.375729            0.407734            
-78.000000          -0.215019           1.348272            0.395202            
-75.000000          -0.268774           1.312514            0.381505            
-72.000000          -0.321692           1.271121            0.367475            
-69.000000          -0.373583           1.224292            0.353156            
-66.000000          -0.423425           1.170238            0.337559            
-63.000000          -0.471252           1.111273            0.321963            
-60.000000          -0.517212           1.048471            0.306342            
-57.000000          -0.561048           0.981923            0.290675            
-54.000000          -0.601726           0.911329            0.274986            
-51.000000          -0.640384           0.838942            0.259394            
-48.000000          -0.677681           0.765122            0.243937            
-45.000000          -0.712825           0.690281            0.228743            
-42.000000          -0.721090           0.615671            0.213550            
-39.000000          -0.734144           0.541902            0.184806            
-36.000000          -0.752430           0.469341            0.137832            
-33.000000          -0.778637           0.399960            0.088628            
-30.000000          -0.904963           0.297916            0.058221            
-29.393940          -0.940754           0.274031            0.053980            
-28.787878          -0.976810           0.250154            0.049738            
-28.181818          -1.013164           0.226274            0.045495            
-27.575758          -1.022582           0.212806            0.041814            
-26.969696          -1.021041           0.203723            0.038362            
-26.363636          -1.020090           0.194613            0.034871            
-25.757576          -1.018855           0.185581            0.031442            
-25.151516          -1.017801           0.176549            0.028021            
-24.545454          -1.018089           0.167559            0.024600            
-23.939394          -1.018882           0.158753            0.021299            
-23.333334          -1.019994           0.150805            0.018652            
-22.727272          -1.021107           0.142856            0.016005            
-22.121212          -1.022219           0.134907            0.013358            
-21.515152          -1.023331           0.126959            0.010711            
-20.909090          -1.024443           0.119010            0.008064            
-20.303030          -1.025556           0.111061            0.005417            
-19.696970          -1.025211           0.103980            0.003404            
-19.090910          -1.023409           0.097766            0.001994            
-18.484848          -1.021607           0.091552            0.000580            
-17.878788          -1.019465           0.085468            -0.000738           
-17.272728          -1.015961           0.079903            -0.001679           
-16.666666          -1.012464           0.074337            -0.002610           
-16.060606          -1.008974           0.068770            -0.003533           
-15.454545          -1.024453           0.062525            -0.003506           
-14.848485          -1.042220           0.056197            -0.003372           
-14.242424          -1.057619           0.049859            -0.003238           
-13.636364          -1.067217           0.044316            -0.003638           
-13.030303          -1.073623           0.039379            -0.004407           
-12.424242          -1.080732           0.034428            -0.005182           
-11.818182          -1.071670           0.029954            -0.007881           
-11.212121          -1.023066           0.026591            -0.014912           
-10.606061          -0.974685           0.023229            -0.022028           
-10.000000          -0.926818           0.019866            -0.029145           
-9.393939           -0.856102           0.018087            -0.035046           
-8.787879           -0.786538           0.016285            -0.041164           
-8.181818           -0.716947           0.014503            -0.047335           
-7.575758           -0.640592           0.013376            -0.052738           
-6.969697           -0.560577           0.012531            -0.057784           
-6.363636           -0.480795           0.011687            -0.062813           
-5.757576           -0.399893           0.011037            -0.067493           
-5.151515           -0.317182           0.010677            -0.071653           
-4.545455           -0.234479           0.010316            -0.075809           
-3.939394           -0.151937           0.009976            -0.079865           
-3.333333           -0.070761           0.009834            -0.083090           
-2.727273           0.010401            0.009691            -0.086322           
-2.121212           0.091523            0.009549            -0.089617           
-1.515152           0.171666            0.009484            -0.092476           
-0.909091           0.251933            0.009447            -0.095210           
-0.303030           0.331580            0.009455            -0.097750           
0.303030            0.410544            0.009486            -0.100193           
0.909091            0.489077            0.009541            -0.102538           
1.515152            0.567061            0.009636            -0.104733           
2.121212            0.644819            0.009746            -0.106870           
2.727273            0.722005            0.009889            -0.108878           
3.333333            0.798762            0.010052            -0.110803           
3.939394            0.875167            0.010233            -0.112659           
4.545455            0.950715            0.010457            -0.114365           
5.151515            1.025754            0.010715            -0.115998           
5.757576            1.099545            0.011064            -0.117465           
6.363636            1.172708            0.011420            -0.118827           
6.969697            1.245456            0.011779            -0.120119           
7.575758            1.316668            0.012200            -0.121196           
8.181818            1.387044            0.012659            -0.122167           
8.787879            1.455659            0.013201            -0.122917           
9.393939            1.522210            0.013824            -0.123412           
10.000000           1.587650            0.014490            -0.123769           
10.606061           1.648636            0.015327            -0.123604           
11.212121           1.707384            0.016251            -0.123201           
11.818182           1.761976            0.017340            -0.122358           
12.424242           1.809685            0.018746            -0.120916           
13.030303           1.853932            0.020321            -0.119193           
13.636364           1.888273            0.022419            -0.116963           
14.242424           1.904508            0.025665            -0.113769           
14.848485           1.895120            0.030833            -0.109201           
15.454545           1.879230            0.036725            -0.106260           
16.060606           1.858487            0.043271            -0.104006           
16.666666           1.804349            0.053536            -0.103236           
17.272728           1.750211            0.063800            -0.102469           
17.878788           1.696073            0.074065            -0.101703           
18.484848           1.639157            0.086362            -0.103290           
19.090910           1.581546            0.099168            -0.105497           
19.696970           1.523935            0.111973            -0.107748           
20.303030           1.479705            0.124661            -0.110763           
20.909090           1.448854            0.137232            -0.114497           
21.515152           1.418003            0.149802            -0.118227           
22.121212           1.387153            0.162386            -0.121956           
22.727272           1.356302            0.175014            -0.125682           
23.333334           1.325452            0.187625            -0.129407           
23.939394           1.294601            0.200223            -0.133131           
24.545454           1.282895            0.212218            -0.136735           
25.151516           1.273989            0.224138            -0.140329           
25.757576           1.267250            0.236043            -0.143928           
26.363636           1.260125            0.247924            -0.147532           
26.969696           1.251590            0.260175            -0.151142           
27.575758           1.244782            0.272310            -0.154760           
28.181818           1.236445            0.285119            -0.158525           
28.787878           1.222092            0.299736            -0.162612           
29.393940           1.207882            0.314307            -0.166699           
30.000000           1.193857            0.328820            -0.170786           
33.000000           1.134543            0.399960            -0.190520           
36.000000           1.094475            0.469341            -0.209278           
39.000000           1.063775            0.541902            -0.227764           
42.000000           1.038601            0.615671            -0.244016           
45.000000           1.018321            0.690281            -0.258601           
48.000000           0.968116            0.765122            -0.273186           
51.000000           0.914835            0.838942            -0.287091           
54.000000           0.859608            0.911329            -0.300645           
57.000000           0.801497            0.981923            -0.313938           
60.000000           0.738874            1.048471            -0.327081           
63.000000           0.673217            1.111273            -0.339890           
66.000000           0.604893            1.170238            -0.352532           
69.000000           0.533690            1.224292            -0.365175           
72.000000           0.459560            1.271121            -0.376964           
75.000000           0.383963            1.312514            -0.388561           
78.000000           0.307170            1.348272            -0.399956           
81.000000           0.229516            1.375729            -0.410707           
84.000000           0.152127            1.395386            -0.420647           
87.000000           0.075506            1.408577            -0.430332           
90.000000           0.000000            1.415220            -0.440018           
93.000000           -0.052854           1.408577            -0.444895           
96.000000           -0.106489           1.395386            -0.449772           
99.000000           -0.160661           1.375729            -0.454039           
102.000000          -0.215019           1.348272            -0.456353           
105.000000          -0.268774           1.312514            -0.457116           
108.000000          -0.321692           1.271121            -0.457372           
111.000000          -0.373583           1.224292            -0.457115           
114.000000          -0.423425           1.170238            -0.454587           
117.000000          -0.471252           1.111273            -0.452058           
120.000000          -0.517212           1.048471            -0.449471           
123.000000          -0.561048           0.981923            -0.446768           
126.000000          -0.601726           0.911329            -0.444012           
129.000000          -0.640384           0.838942            -0.442090           
132.000000          -0.677681           0.765122            -0.441324           
135.000000          -0.712825           0.690281            -0.442799           
138.000000          -0.746550           0.615671            -0.444185           
141.000000          -0.780139           0.541902            -0.447653           
144.000000          -0.814033           0.469341            -0.452879           
147.000000          -0.850853           0.399960            -0.458301           
150.000000          -0.809181           0.332948            -0.461410           
153.000000          -0.728263           0.270378            -0.441225           
156.000000          -0.647345           0.212520            -0.418709           
159.000000          -0.566426           0.159622            -0.396194           
162.000000          -0.485508           0.112631            -0.410952           
165.000000          -0.404590           0.072270            -0.444345           
168.000000          -0.323672           0.038258            -0.477738           
171.000000          -0.242754           0.025001            -0.450000           
174.000000          -0.161836           0.019453            -0.300000           
177.000000          -0.080918           0.016019            -0.150000           
180.000000          0.000000            0.014732            0.000000            
