----------------------------------------QBlade Multi RE Polar File--------------------------------------------------
Generated with : QBlade CE v2.0.8.3_beta windows
Archive Format: 310035
Time : 18:03:10
Date : 07.02.2025

----------------------------------------Object Names----------------------------------------------------------------
IEA-15-240-RWT_AeroDyn15_Polar_01.dat                                  POLARNAME          - the polar name
../Airfoils/IEA-15-240-RWT_AF01_Coords.afl                             FOILNAME           - the airfoil name to which the polar(s) belong OR path to airfoil file

----------------------------------------Parameters------------------------------------------------------------------
100.0                                              THICKNESS          - the name of the blade
false                                              ISDECOMPOSED       - is the polar decomposed (imports Cl_Sep, Cl_att and f_st columns) [bool]
REYNOLDS            1.0000E+00          - the list of Reynolds numbers for the imported polars

----------------------------------------Polar Data------------------------------------------------------------------
AOA                 CL                  CD                  CM                  
-180.000000         0.000100            0.349992            -0.000100           
-177.000000         0.000108            0.349992            -0.000098           
-174.000000         0.000117            0.349991            -0.000096           
-171.000000         0.000125            0.349991            -0.000093           
-168.000000         0.000133            0.349992            -0.000093           
-165.000000         0.000142            0.349992            -0.000095           
-162.000000         0.000150            0.349990            -0.000096           
-159.000000         0.000154            0.349990            -0.000098           
-156.000000         0.000151            0.349993            -0.000100           
-153.000000         0.000147            0.349994            -0.000100           
-150.000000         0.000143            0.349996            -0.000100           
-147.000000         0.000134            0.350000            -0.000100           
-144.000000         0.000132            0.350001            -0.000100           
-141.000000         0.000130            0.350004            -0.000100           
-138.000000         0.000128            0.350006            -0.000100           
-135.000000         0.000126            0.350009            -0.000100           
-132.000000         0.000125            0.350011            -0.000100           
-129.000000         0.000123            0.350014            -0.000100           
-126.000000         0.000121            0.350016            -0.000100           
-123.000000         0.000119            0.350019            -0.000100           
-120.000000         0.000118            0.350022            -0.000100           
-117.000000         0.000116            0.350024            -0.000100           
-114.000000         0.000114            0.350026            -0.000100           
-111.000000         0.000112            0.350028            -0.000100           
-108.000000         0.000111            0.350030            -0.000100           
-105.000000         0.000109            0.350031            -0.000100           
-102.000000         0.000107            0.350033            -0.000100           
-99.000000          0.000105            0.350035            -0.000100           
-96.000000          0.000104            0.350035            -0.000100           
-93.000000          0.000102            0.350036            -0.000100           
-90.000000          0.000100            0.350038            -0.000100           
-87.000000          0.000098            0.350036            -0.000100           
-84.000000          0.000096            0.350035            -0.000100           
-81.000000          0.000095            0.350035            -0.000100           
-78.000000          0.000093            0.350033            -0.000100           
-75.000000          0.000091            0.350031            -0.000100           
-72.000000          0.000089            0.350030            -0.000100           
-69.000000          0.000088            0.350028            -0.000100           
-66.000000          0.000086            0.350026            -0.000100           
-63.000000          0.000084            0.350024            -0.000100           
-60.000000          0.000082            0.350022            -0.000100           
-57.000000          0.000081            0.350019            -0.000100           
-54.000000          0.000079            0.350016            -0.000100           
-51.000000          0.000077            0.350014            -0.000100           
-48.000000          0.000075            0.350011            -0.000100           
-45.000000          0.000074            0.350009            -0.000100           
-42.000000          0.000072            0.350006            -0.000100           
-39.000000          0.000070            0.350004            -0.000100           
-36.000000          0.000068            0.350001            -0.000100           
-33.000000          0.000066            0.350000            -0.000099           
-30.000000          0.000064            0.349998            -0.000097           
-29.393940          0.000065            0.349999            -0.000097           
-28.787878          0.000066            0.350000            -0.000097           
-28.181818          0.000067            0.350000            -0.000098           
-27.575758          0.000066            0.350000            -0.000098           
-26.969696          0.000065            0.350000            -0.000098           
-26.363636          0.000064            0.349999            -0.000098           
-25.757576          0.000063            0.349999            -0.000098           
-25.151516          0.000062            0.349998            -0.000099           
-24.545454          0.000061            0.349998            -0.000099           
-23.939394          0.000060            0.349997            -0.000099           
-23.333334          0.000059            0.349997            -0.000099           
-22.727272          0.000058            0.349996            -0.000099           
-22.121212          0.000057            0.349996            -0.000100           
-21.515152          0.000055            0.349995            -0.000100           
-20.909090          0.000054            0.349995            -0.000100           
-20.303030          0.000053            0.349994            -0.000100           
-19.696970          0.000053            0.349994            -0.000101           
-19.090910          0.000054            0.349994            -0.000101           
-18.484848          0.000054            0.349994            -0.000101           
-17.878788          0.000055            0.349994            -0.000101           
-17.272728          0.000055            0.349994            -0.000101           
-16.666666          0.000055            0.349993            -0.000101           
-16.060606          0.000056            0.349993            -0.000101           
-15.454545          0.000057            0.349993            -0.000101           
-14.848485          0.000057            0.349993            -0.000101           
-14.242424          0.000059            0.349993            -0.000101           
-13.636364          0.000060            0.349993            -0.000101           
-13.030303          0.000061            0.349993            -0.000101           
-12.424242          0.000064            0.349993            -0.000101           
-11.818182          0.000065            0.349993            -0.000101           
-11.212121          0.000067            0.349993            -0.000101           
-10.606061          0.000068            0.349993            -0.000101           
-10.000000          0.000069            0.349993            -0.000101           
-9.393939           0.000071            0.349993            -0.000101           
-8.787879           0.000074            0.349993            -0.000101           
-8.181818           0.000078            0.349993            -0.000102           
-7.575758           0.000082            0.349993            -0.000102           
-6.969697           0.000086            0.349993            -0.000102           
-6.363636           0.000089            0.349993            -0.000103           
-5.757576           0.000093            0.349993            -0.000103           
-5.151515           0.000097            0.349993            -0.000103           
-4.545455           0.000100            0.349993            -0.000103           
-3.939394           0.000100            0.349993            -0.000104           
-3.333333           0.000102            0.349993            -0.000104           
-2.727273           0.000107            0.349993            -0.000104           
-2.121212           0.000109            0.349993            -0.000104           
-1.515152           0.000111            0.349993            -0.000104           
-0.909091           0.000112            0.349993            -0.000104           
-0.303030           0.000114            0.349993            -0.000103           
0.303030            0.000116            0.349993            -0.000103           
0.909091            0.000118            0.349993            -0.000103           
1.515152            0.000120            0.349993            -0.000103           
2.121212            0.000123            0.349993            -0.000103           
2.727273            0.000125            0.349993            -0.000104           
3.333333            0.000127            0.349993            -0.000104           
3.939394            0.000129            0.349993            -0.000104           
4.545455            0.000132            0.349993            -0.000104           
5.151515            0.000134            0.349993            -0.000104           
5.757576            0.000136            0.349993            -0.000104           
6.363636            0.000138            0.349993            -0.000104           
6.969697            0.000141            0.349993            -0.000104           
7.575758            0.000143            0.349993            -0.000104           
8.181818            0.000145            0.349993            -0.000104           
8.787879            0.000148            0.349993            -0.000104           
9.393939            0.000150            0.349993            -0.000104           
10.000000           0.000151            0.349993            -0.000104           
10.606061           0.000153            0.349993            -0.000104           
11.212121           0.000154            0.349993            -0.000103           
11.818182           0.000155            0.349993            -0.000103           
12.424242           0.000156            0.349993            -0.000103           
13.030303           0.000159            0.349993            -0.000102           
13.636364           0.000162            0.349992            -0.000102           
14.242424           0.000165            0.349992            -0.000102           
14.848485           0.000167            0.349992            -0.000102           
15.454545           0.000169            0.349992            -0.000102           
16.060606           0.000170            0.349992            -0.000102           
16.666666           0.000172            0.349992            -0.000102           
17.272728           0.000175            0.349992            -0.000102           
17.878788           0.000175            0.349992            -0.000102           
18.484848           0.000175            0.349992            -0.000102           
19.090910           0.000176            0.349992            -0.000102           
19.696970           0.000177            0.349992            -0.000102           
20.303030           0.000176            0.349993            -0.000102           
20.909090           0.000175            0.349993            -0.000102           
21.515152           0.000174            0.349993            -0.000102           
22.121212           0.000174            0.349993            -0.000102           
22.727272           0.000175            0.349993            -0.000102           
23.333334           0.000176            0.349993            -0.000102           
23.939394           0.000176            0.349993            -0.000102           
24.545454           0.000175            0.349993            -0.000103           
25.151516           0.000173            0.349993            -0.000103           
25.757576           0.000171            0.349994            -0.000103           
26.363636           0.000168            0.349994            -0.000104           
26.969696           0.000166            0.349995            -0.000104           
27.575758           0.000163            0.349995            -0.000105           
28.181818           0.000161            0.349995            -0.000105           
28.787878           0.000159            0.349996            -0.000106           
29.393940           0.000156            0.349996            -0.000106           
30.000000           0.000154            0.349997            -0.000106           
33.000000           0.000148            0.350000            -0.000107           
36.000000           0.000145            0.350002            -0.000107           
39.000000           0.000142            0.350004            -0.000108           
42.000000           0.000139            0.350006            -0.000108           
45.000000           0.000137            0.350009            -0.000108           
48.000000           0.000135            0.350011            -0.000109           
51.000000           0.000133            0.350014            -0.000109           
54.000000           0.000130            0.350016            -0.000109           
57.000000           0.000128            0.350019            -0.000110           
60.000000           0.000125            0.350022            -0.000110           
63.000000           0.000123            0.350024            -0.000110           
66.000000           0.000120            0.350026            -0.000111           
69.000000           0.000118            0.350028            -0.000111           
72.000000           0.000115            0.350030            -0.000112           
75.000000           0.000113            0.350031            -0.000112           
78.000000           0.000110            0.350033            -0.000113           
81.000000           0.000107            0.350035            -0.000113           
84.000000           0.000105            0.350035            -0.000113           
87.000000           0.000103            0.350036            -0.000114           
90.000000           0.000100            0.350038            -0.000114           
93.000000           0.000098            0.350036            -0.000114           
96.000000           0.000096            0.350035            -0.000114           
99.000000           0.000095            0.350035            -0.000114           
102.000000          0.000093            0.350033            -0.000114           
105.000000          0.000091            0.350031            -0.000114           
108.000000          0.000089            0.350030            -0.000114           
111.000000          0.000088            0.350028            -0.000114           
114.000000          0.000086            0.350026            -0.000114           
117.000000          0.000084            0.350024            -0.000114           
120.000000          0.000082            0.350022            -0.000114           
123.000000          0.000081            0.350019            -0.000114           
126.000000          0.000079            0.350016            -0.000114           
129.000000          0.000077            0.350014            -0.000113           
132.000000          0.000075            0.350011            -0.000114           
135.000000          0.000074            0.350009            -0.000114           
138.000000          0.000072            0.350006            -0.000114           
141.000000          0.000070            0.350004            -0.000115           
144.000000          0.000068            0.350001            -0.000117           
147.000000          0.000066            0.350000            -0.000118           
150.000000          0.000057            0.349996            -0.000120           
153.000000          0.000053            0.349994            -0.000123           
156.000000          0.000049            0.349993            -0.000126           
159.000000          0.000046            0.349990            -0.000129           
162.000000          0.000050            0.349990            -0.000126           
165.000000          0.000058            0.349992            -0.000120           
168.000000          0.000067            0.349992            -0.000114           
171.000000          0.000075            0.349991            -0.000108           
174.000000          0.000083            0.349991            -0.000106           
177.000000          0.000092            0.349992            -0.000103           
180.000000          0.000100            0.349992            -0.000100           
