----------------------------------------QBlade Multi RE Polar File--------------------------------------------------
Generated with : QBlade CE v2.0.8.3_beta windows
Archive Format: 310035
Time : 18:03:11
Date : 07.02.2025

----------------------------------------Object Names----------------------------------------------------------------
IEA-15-240-RWT_AeroDyn15_Polar_18.dat                                  POLARNAME          - the polar name
../Airfoils/IEA-15-240-RWT_AF18_Coords.afl                             FOILNAME           - the airfoil name to which the polar(s) belong OR path to airfoil file

----------------------------------------Parameters------------------------------------------------------------------
31.3                                               THICKNESS          - the name of the blade
false                                              ISDECOMPOSED       - is the polar decomposed (imports Cl_Sep, Cl_att and f_st columns) [bool]
REYNOLDS            1.0000E+00          - the list of Reynolds numbers for the imported polars

----------------------------------------Polar Data------------------------------------------------------------------
AOA                 CL                  CD                  CM                  
-180.000000         0.000000            0.029282            0.000000            
-177.000000         0.089379            0.030435            0.120000            
-174.000000         0.178758            0.033512            0.240000            
-171.000000         0.268137            0.038482            0.360001            
-168.000000         0.357520            0.047381            0.403596            
-165.000000         0.446895            0.072407            0.408991            
-162.000000         0.536279            0.109294            0.414385            
-159.000000         0.625648            0.152357            0.425387            
-156.000000         0.715034            0.200878            0.447610            
-153.000000         0.804412            0.253940            0.469830            
-150.000000         0.893790            0.311309            0.489115            
-147.000000         0.934818            0.372735            0.479039            
-144.000000         0.879113            0.436319            0.465847            
-141.000000         0.829844            0.502798            0.452907            
-138.000000         0.782683            0.570368            0.443697            
-135.000000         0.736996            0.638695            0.436947            
-132.000000         0.692374            0.707215            0.430196            
-129.000000         0.647782            0.774779            0.426952            
-126.000000         0.602529            0.841013            0.425509            
-123.000000         0.556443            0.905587            0.425399            
-120.000000         0.508753            0.966430            0.425622            
-117.000000         0.459915            1.023821            0.426444            
-114.000000         0.410077            1.077677            0.427572            
-111.000000         0.359169            1.127014            0.428698            
-108.000000         0.307300            1.169704            0.428324            
-105.000000         0.255088            1.207394            0.427611            
-102.000000         0.202697            1.239902            0.426516            
-99.000000          0.150544            1.264779            0.424115            
-96.000000          0.099245            1.282487            0.420067            
-93.000000          0.048990            1.294252            0.415504            
-90.000000          0.000000            1.300000            0.410940            
-87.000000          -0.048990           1.294252            0.401369            
-84.000000          -0.099245           1.282487            0.391796            
-81.000000          -0.150544           1.264779            0.381829            
-78.000000          -0.202697           1.239902            0.370614            
-75.000000          -0.255088           1.207394            0.358425            
-72.000000          -0.307300           1.169704            0.345971            
-69.000000          -0.359169           1.127014            0.333310            
-66.000000          -0.410077           1.077677            0.319731            
-63.000000          -0.459915           1.023821            0.306152            
-60.000000          -0.508753           0.966430            0.292629            
-57.000000          -0.556443           0.905587            0.279113            
-54.000000          -0.602529           0.841013            0.265654            
-51.000000          -0.647782           0.774779            0.252282            
-48.000000          -0.692374           0.707215            0.239020            
-45.000000          -0.736996           0.638695            0.225967            
-42.000000          -0.809786           0.570368            0.212915            
-39.000000          -0.878709           0.502798            0.184311            
-36.000000          -0.944362           0.436319            0.134533            
-33.000000          -1.010945           0.372735            0.082179            
-30.000000          -1.132687           0.280101            0.052632            
-29.393940          -1.160807           0.258585            0.048956            
-28.787878          -1.188601           0.237340            0.045279            
-28.181818          -1.216052           0.216210            0.041602            
-27.575758          -1.223559           0.203599            0.038254            
-26.969696          -1.222422           0.194574            0.035045            
-26.363636          -1.221054           0.185777            0.031836            
-25.757576          -1.219454           0.176993            0.028627            
-25.151516          -1.217621           0.168213            0.025416            
-24.545454          -1.213875           0.159438            0.022205            
-23.939394          -1.209118           0.150840            0.019088            
-23.333334          -1.200740           0.143790            0.016818            
-22.727272          -1.192124           0.136755            0.014542            
-22.121212          -1.183166           0.129747            0.012259            
-21.515152          -1.173698           0.122788            0.009969            
-20.909090          -1.167531           0.115657            0.007676            
-20.303030          -1.161432           0.108359            0.005421            
-19.696970          -1.154322           0.101733            0.003596            
-19.090910          -1.146162           0.095708            0.002227            
-18.484848          -1.137717           0.089688            0.000901            
-17.878788          -1.128876           0.083816            -0.000305           
-17.272728          -1.119219           0.078527            -0.001000           
-16.666666          -1.109514           0.073241            -0.001699           
-16.060606          -1.099768           0.067955            -0.002401           
-15.454545          -1.091899           0.063083            -0.002489           
-14.848485          -1.084232           0.058257            -0.002510           
-14.242424          -1.076557           0.053430            -0.002534           
-13.636364          -1.068954           0.048938            -0.002720           
-13.030303          -1.061380           0.044697            -0.003083           
-12.424242          -1.053779           0.040445            -0.003190           
-11.818182          -1.036233           0.036527            -0.004305           
-11.212121          -0.994973           0.033400            -0.007989           
-10.606061          -0.953442           0.030264            -0.011675           
-10.000000          -0.911442           0.027120            -0.015665           
-9.393939           -0.843231           0.025140            -0.022462           
-8.787879           -0.774983           0.023160            -0.029155           
-8.181818           -0.706662           0.021178            -0.035755           
-7.575758           -0.635071           0.019666            -0.041586           
-6.969697           -0.561441           0.018357            -0.047123           
-6.363636           -0.487809           0.017047            -0.052679           
-5.757576           -0.410208           0.015977            -0.058315           
-5.151515           -0.326649           0.015267            -0.064044           
-4.545455           -0.243080           0.014557            -0.069768           
-3.939394           -0.159098           0.013888            -0.075438           
-3.333333           -0.071479           0.013587            -0.080675           
-2.727273           0.016182            0.013285            -0.085898           
-2.121212           0.103877            0.012983            -0.091252           
-1.515152           0.190828            0.012822            -0.096061           
-0.909091           0.277795            0.012707            -0.100511           
-0.303030           0.363732            0.012660            -0.104553           
0.303030            0.448980            0.012646            -0.108388           
0.909091            0.533552            0.012667            -0.112006           
1.515152            0.617055            0.012733            -0.115312           
2.121212            0.700125            0.012818            -0.118500           
2.727273            0.782239            0.012942            -0.121430           
3.333333            0.863697            0.013094            -0.124204           
3.939394            0.944619            0.013269            -0.126852           
4.545455            1.024391            0.013491            -0.129258           
5.151515            1.103702            0.013730            -0.131574           
5.757576            1.182023            0.014008            -0.133698           
6.363636            1.259388            0.014327            -0.135652           
6.969697            1.336121            0.014674            -0.137491           
7.575758            1.410805            0.015099            -0.139018           
8.181818            1.484598            0.015559            -0.140410           
8.787879            1.556562            0.016090            -0.141527           
9.393939            1.626046            0.016716            -0.142303           
10.000000           1.694244            0.017394            -0.142896           
10.606061           1.758075            0.018294            -0.142948           
11.212121           1.820467            0.019327            -0.142803           
11.818182           1.875494            0.020608            -0.142295           
12.424242           1.921329            0.022420            -0.141409           
13.030303           1.962559            0.024529            -0.140355           
13.636364           1.986453            0.028003            -0.139183           
14.242424           2.004252            0.032036            -0.137977           
14.848485           2.014713            0.036879            -0.136670           
15.454545           2.019784            0.042562            -0.135360           
16.060606           2.022042            0.048633            -0.134024           
16.666666           2.013837            0.055921            -0.132400           
17.272728           2.005444            0.063245            -0.130772           
17.878788           1.996961            0.070597            -0.129139           
18.484848           1.961003            0.080819            -0.128067           
19.090910           1.918124            0.091768            -0.127179           
19.696970           1.875183            0.102734            -0.126323           
20.303030           1.836704            0.114529            -0.127190           
20.909090           1.802703            0.127149            -0.129767           
21.515152           1.768662            0.139781            -0.132349           
22.121212           1.734576            0.152429            -0.134937           
22.727272           1.700437            0.165097            -0.137532           
23.333334           1.666237            0.177794            -0.140134           
23.939394           1.631964            0.190002            -0.142745           
24.545454           1.618186            0.202297            -0.146499           
25.151516           1.605887            0.214601            -0.150383           
25.757576           1.591201            0.226908            -0.154269           
26.363636           1.576155            0.239217            -0.158159           
26.969696           1.560729            0.251530            -0.162053           
27.575758           1.544894            0.263846            -0.165950           
28.181818           1.530399            0.276054            -0.169661           
28.787878           1.519726            0.288016            -0.172926           
29.393940           1.508132            0.299991            -0.176187           
30.000000           1.494594            0.311974            -0.179443           
33.000000           1.420926            0.372735            -0.195888           
36.000000           1.328531            0.436319            -0.213310           
39.000000           1.239528            0.502798            -0.230386           
42.000000           1.147920            0.570368            -0.244612           
45.000000           1.052852            0.638695            -0.256714           
48.000000           0.989105            0.707215            -0.268818           
51.000000           0.925403            0.774779            -0.280253           
54.000000           0.860755            0.841013            -0.291347           
57.000000           0.794918            0.905587            -0.302195           
60.000000           0.726790            0.966430            -0.313014           
63.000000           0.657022            1.023821            -0.323758           
66.000000           0.585824            1.077677            -0.334339           
69.000000           0.513099            1.127014            -0.344920           
72.000000           0.439000            1.169704            -0.355095           
75.000000           0.364411            1.207394            -0.365178           
78.000000           0.289567            1.239902            -0.375136           
81.000000           0.215063            1.264779            -0.384632           
84.000000           0.141778            1.282487            -0.393531           
87.000000           0.069986            1.294252            -0.402237           
90.000000           0.000000            1.300000            -0.410940           
93.000000           -0.048990           1.294252            -0.415504           
96.000000           -0.099245           1.282487            -0.420067           
99.000000           -0.150544           1.264779            -0.424115           
102.000000          -0.202697           1.239902            -0.426516           
105.000000          -0.255088           1.207394            -0.427611           
108.000000          -0.307300           1.169704            -0.428324           
111.000000          -0.359169           1.127014            -0.428698           
114.000000          -0.410077           1.077677            -0.427572           
117.000000          -0.459915           1.023821            -0.426444           
120.000000          -0.508753           0.966430            -0.425622           
123.000000          -0.556443           0.905587            -0.425399           
126.000000          -0.602529           0.841013            -0.425509           
129.000000          -0.647782           0.774779            -0.426952           
132.000000          -0.692374           0.707215            -0.430196           
135.000000          -0.736996           0.638695            -0.436947           
138.000000          -0.782683           0.570368            -0.443697           
141.000000          -0.829844           0.502798            -0.452907           
144.000000          -0.879113           0.436319            -0.465847           
147.000000          -0.934818           0.372735            -0.479039           
150.000000          -0.893790           0.311309            -0.489115           
153.000000          -0.804411           0.253939            -0.469830           
156.000000          -0.715032           0.200877            -0.447609           
159.000000          -0.625653           0.152359            -0.425388           
162.000000          -0.536274           0.109292            -0.434385           
165.000000          -0.446895           0.072407            -0.458991           
168.000000          -0.357516           0.047380            -0.483596           
171.000000          -0.268137           0.038482            -0.450000           
174.000000          -0.178758           0.033512            -0.300000           
177.000000          -0.089379           0.030435            -0.150000           
180.000000          0.000000            0.029282            0.000000            
