----------------------------------------QBlade Multi RE Polar File--------------------------------------------------
Generated with : QBlade CE v2.0.8.3_beta windows
Archive Format: 310035
Time : 18:03:11
Date : 07.02.2025

----------------------------------------Object Names----------------------------------------------------------------
IEA-15-240-RWT_AeroDyn15_Polar_20.dat                                  POLARNAME          - the polar name
../Airfoils/IEA-15-240-RWT_AF20_Coords.afl                             FOILNAME           - the airfoil name to which the polar(s) belong OR path to airfoil file

----------------------------------------Parameters------------------------------------------------------------------
30.1                                               THICKNESS          - the name of the blade
false                                              ISDECOMPOSED       - is the polar decomposed (imports Cl_Sep, Cl_att and f_st columns) [bool]
REYNOLDS            1.0000E+00          - the list of Reynolds numbers for the imported polars

----------------------------------------Polar Data------------------------------------------------------------------
AOA                 CL                  CD                  CM                  
-180.000000         0.000000            0.026729            0.000000            
-177.000000         0.087030            0.027885            0.120000            
-174.000000         0.174061            0.030966            0.240000            
-171.000000         0.261091            0.035943            0.360001            
-168.000000         0.348126            0.045706            0.402226            
-165.000000         0.435151            0.073291            0.405564            
-162.000000         0.522187            0.110060            0.408903            
-159.000000         0.609207            0.153057            0.418450            
-156.000000         0.696245            0.201545            0.440416            
-153.000000         0.783274            0.254581            0.462375            
-150.000000         0.870303            0.311927            0.481502            
-147.000000         0.910804            0.373329            0.472337            
-144.000000         0.858188            0.436890            0.460188            
-141.000000         0.811443            0.503345            0.448344            
-138.000000         0.766495            0.570890            0.440274            
-135.000000         0.722709            0.639190            0.434465            
-132.000000         0.679922            0.707683            0.428656            
-129.000000         0.637225            0.775218            0.426077            
-126.000000         0.593685            0.841423            0.425157            
-123.000000         0.549144            0.905967            0.425426            
-120.000000         0.502772            0.966778            0.425814            
-117.000000         0.455111            1.024137            0.426742            
-114.000000         0.406322            1.077961            0.427941            
-111.000000         0.356324            1.127263            0.429139            
-108.000000         0.305202            1.169919            0.428766            
-105.000000         0.253631            1.207574            0.428039            
-102.000000         0.201775            1.240046            0.426920            
-99.000000          0.150017            1.264888            0.424480            
-96.000000          0.098991            1.282559            0.420377            
-93.000000          0.048912            1.294288            0.415755            
-90.000000          0.000000            1.300000            0.411133            
-87.000000          -0.048912           1.294288            0.401508            
-84.000000          -0.098991           1.282559            0.391884            
-81.000000          -0.150017           1.264888            0.381864            
-78.000000          -0.201775           1.240046            0.370566            
-75.000000          -0.253631           1.207574            0.358230            
-72.000000          -0.305202           1.169919            0.345620            
-69.000000          -0.356324           1.127263            0.332792            
-66.000000          -0.406322           1.077961            0.318996            
-63.000000          -0.455111           1.024137            0.305200            
-60.000000          -0.502772           0.966778            0.291443            
-57.000000          -0.549144           0.905967            0.277724            
-54.000000          -0.593685           0.841423            0.264043            
-51.000000          -0.637225           0.775218            0.250442            
-48.000000          -0.679922           0.707683            0.236948            
-45.000000          -0.722709           0.639190            0.223660            
-42.000000          -0.777883           0.570890            0.210372            
-39.000000          -0.831989           0.503345            0.182279            
-36.000000          -0.885646           0.436890            0.134200            
-33.000000          -0.942878           0.373329            0.083294            
-30.000000          -1.057867           0.282692            0.053996            
-29.393940          -1.085975           0.261874            0.050240            
-28.787878          -1.113857           0.241288            0.046485            
-28.181818          -1.141482           0.220915            0.042731            
-27.575758          -1.150191           0.208392            0.039297            
-26.969696          -1.150746           0.199150            0.036001            
-26.363636          -1.151152           0.190003            0.032704            
-25.757576          -1.151409           0.180866            0.029408            
-25.151516          -1.151518           0.171737            0.026112            
-24.545454          -1.150769           0.162616            0.022816            
-23.939394          -1.149654           0.153643            0.019612            
-23.333334          -1.147841           0.145939            0.017233            
-22.727272          -1.145609           0.138261            0.014852            
-22.121212          -1.142777           0.130629            0.012469            
-21.515152          -1.139049           0.123081            0.010086            
-20.909090          -1.138014           0.115442            0.007706            
-20.303030          -1.137228           0.107602            0.005329            
-19.696970          -1.136120           0.100497            0.003510            
-19.090910          -1.134673           0.094100            0.002282            
-18.484848          -1.133111           0.087704            0.001071            
-17.878788          -1.130982           0.081485            -0.000018           
-17.272728          -1.126897           0.075965            -0.000608           
-16.666666          -1.122792           0.070446            -0.001199           
-16.060606          -1.118670           0.064928            -0.001791           
-15.454545          -1.115495           0.059992            -0.001757           
-14.848485          -1.112423           0.055121            -0.001653           
-14.242424          -1.109347           0.050250            -0.001550           
-13.636364          -1.103954           0.045754            -0.002024           
-13.030303          -1.097010           0.041557            -0.002909           
-12.424242          -1.090055           0.037340            -0.003586           
-11.818182          -1.069972           0.033531            -0.005658           
-11.212121          -1.018462           0.030696            -0.010915           
-10.606061          -0.966912           0.027844            -0.016173           
-10.000000          -0.915462           0.024976            -0.021552           
-9.393939           -0.847459           0.023188            -0.027451           
-8.787879           -0.779453           0.021399            -0.033316           
-8.181818           -0.711432           0.019608            -0.039153           
-7.575758           -0.640858           0.018239            -0.044376           
-6.969697           -0.568018           0.017054            -0.049363           
-6.363636           -0.495177           0.015868            -0.054380           
-5.757576           -0.418004           0.014904            -0.059599           
-5.151515           -0.334330           0.014274            -0.065072           
-4.545455           -0.250653           0.013644            -0.070545           
-3.939394           -0.166723           0.013050            -0.075958           
-3.333333           -0.080560           0.012775            -0.080863           
-2.727273           0.005621            0.012501            -0.085746           
-2.121212           0.091815            0.012226            -0.090655           
-1.515152           0.177157            0.012082            -0.095038           
-0.909091           0.262774            0.011981            -0.099148           
-0.303030           0.347316            0.011942            -0.102889           
0.303030            0.431200            0.011936            -0.106439           
0.909091            0.514451            0.011962            -0.109793           
1.515152            0.596744            0.012031            -0.112875           
2.121212            0.678644            0.012117            -0.115853           
2.727273            0.759681            0.012239            -0.118600           
3.333333            0.840124            0.012387            -0.121210           
3.939394            0.920083            0.012556            -0.123707           
4.545455            0.998999            0.012768            -0.125992           
5.151515            1.077481            0.012996            -0.128193           
5.757576            1.155012            0.013261            -0.130212           
6.363636            1.231609            0.013566            -0.132071           
6.969697            1.307583            0.013900            -0.133823           
7.575758            1.381592            0.014312            -0.135283           
8.181818            1.454760            0.014755            -0.136618           
8.787879            1.526208            0.015261            -0.137697           
9.393939            1.595310            0.015854            -0.138463           
10.000000           1.663167            0.016494            -0.139059           
10.606061           1.726545            0.017327            -0.139112           
11.212121           1.788052            0.018271            -0.138963           
11.818182           1.844181            0.019423            -0.138440           
12.424242           1.893064            0.020962            -0.137517           
13.030303           1.938041            0.022716            -0.136398           
13.636364           1.967980            0.025483            -0.134836           
14.242424           1.990336            0.028740            -0.133186           
14.848485           2.003088            0.032673            -0.131379           
15.454545           2.005885            0.037984            -0.129500           
16.060606           2.004028            0.043907            -0.127608           
16.666666           1.988455            0.051557            -0.125821           
17.272728           1.972553            0.059221            -0.124025           
17.878788           1.956493            0.066897            -0.122219           
18.484848           1.913833            0.077517            -0.121420           
19.090910           1.864434            0.088878            -0.120874           
19.696970           1.814925            0.100245            -0.120318           
20.303030           1.771315            0.112456            -0.121525           
20.909090           1.733631            0.125510            -0.124512           
21.515152           1.695878            0.138568            -0.127502           
22.121212           1.658044            0.151632            -0.130495           
22.727272           1.620118            0.164705            -0.133490           
23.333334           1.582085            0.177789            -0.136488           
23.939394           1.543923            0.190453            -0.139489           
24.545454           1.526201            0.202864            -0.143196           
25.151516           1.510299            0.215247            -0.146984           
25.757576           1.493247            0.227635            -0.150772           
26.363636           1.475872            0.240027            -0.154561           
26.969696           1.458136            0.252424            -0.158352           
27.575758           1.439992            0.264828            -0.162144           
28.181818           1.424435            0.277072            -0.165778           
28.787878           1.415709            0.288954            -0.169037           
29.393940           1.406543            0.300858            -0.172288           
30.000000           1.396530            0.312775            -0.175530           
33.000000           1.336977            0.373329            -0.191899           
36.000000           1.256416            0.436890            -0.209460           
39.000000           1.181828            0.503345            -0.226686           
42.000000           1.107466            0.570890            -0.241174           
45.000000           1.032441            0.639190            -0.253619           
48.000000           0.971317            0.707683            -0.266066           
51.000000           0.910321            0.775218            -0.277836           
54.000000           0.848122            0.841423            -0.289259           
57.000000           0.784492            0.905967            -0.300429           
60.000000           0.718246            0.966778            -0.311542           
63.000000           0.650158            1.024137            -0.322526           
66.000000           0.580459            1.077961            -0.333395           
69.000000           0.509035            1.127263            -0.344264           
72.000000           0.436003            1.169919            -0.354646           
75.000000           0.362330            1.207574            -0.364917           
78.000000           0.288250            1.240046            -0.375051           
81.000000           0.214310            1.264888            -0.384659           
84.000000           0.141416            1.282559            -0.393614           
87.000000           0.069874            1.294288            -0.402373           
90.000000           0.000000            1.300000            -0.411133           
93.000000           -0.048912           1.294288            -0.415755           
96.000000           -0.098991           1.282559            -0.420377           
99.000000           -0.150017           1.264888            -0.424480           
102.000000          -0.201775           1.240046            -0.426920           
105.000000          -0.253631           1.207574            -0.428039           
108.000000          -0.305202           1.169919            -0.428766           
111.000000          -0.356324           1.127263            -0.429139           
114.000000          -0.406322           1.077961            -0.427941           
117.000000          -0.455111           1.024137            -0.426742           
120.000000          -0.502772           0.966778            -0.425814           
123.000000          -0.549144           0.905967            -0.425426           
126.000000          -0.593685           0.841423            -0.425157           
129.000000          -0.637225           0.775218            -0.426077           
132.000000          -0.679922           0.707683            -0.428656           
135.000000          -0.722709           0.639190            -0.434465           
138.000000          -0.766495           0.570890            -0.440274           
141.000000          -0.811443           0.503345            -0.448344           
144.000000          -0.858188           0.436890            -0.460188           
147.000000          -0.910804           0.373329            -0.472337           
150.000000          -0.870303           0.311927            -0.481502           
153.000000          -0.783273           0.254580            -0.462375           
156.000000          -0.696242           0.201544            -0.440416           
159.000000          -0.609212           0.153060            -0.418451           
162.000000          -0.522182           0.110058            -0.428903           
165.000000          -0.435151           0.073291            -0.455564           
168.000000          -0.348121           0.045705            -0.482226           
171.000000          -0.261091           0.035943            -0.450000           
174.000000          -0.174061           0.030966            -0.300000           
177.000000          -0.087030           0.027885            -0.150000           
180.000000          0.000000            0.026729            0.000000            
