----------------------------------------QBlade Multi RE Polar File--------------------------------------------------
Generated with : QBlade CE v2.0.8.6_beta windows
Archive Format: 310035
Time : 14:38:45
Date : 16.05.2025

----------------------------------------Object Names----------------------------------------------------------------
IEA-15-240-RWT_AeroDyn15_Polar_36.dat                                  POLARNAME          - the polar name
../Airfoils/IEA-15-240-RWT_AF36_Coords.afl                             FOILNAME           - the airfoil name to which the polar(s) belong OR path to airfoil file

----------------------------------------Parameters------------------------------------------------------------------
21.6                                               THICKNESS          - the name of the blade
false                                              ISDECOMPOSED       - is the polar decomposed (imports Cl_Sep, Cl_att and f_st columns) [bool]
REYNOLDS            1.0000E+00          - the list of Reynolds numbers for the imported polars

----------------------------------------Polar Data------------------------------------------------------------------
AOA                 CL                  CD                  CM                  
-180.000000         0.000000            0.022040            0.000000            
-177.000000         0.071596            0.023397            0.120000            
-174.000000         0.143192            0.027017            0.240000            
-171.000000         0.214788            0.032866            0.360001            
-168.000000         0.286387            0.057110            0.389389            
-165.000000         0.357979            0.092884            0.373475            
-162.000000         0.429578            0.135650            0.357560            
-159.000000         0.501166            0.185499            0.354439            
-156.000000         0.572768            0.241580            0.376908            
-153.000000         0.644363            0.302866            0.399376            
-150.000000         0.715958            0.369099            0.420151            
-147.000000         0.757560            0.439987            0.424002            
-144.000000         0.739181            0.513346            0.426168            
-141.000000         0.720320            0.590018            0.428452            
-138.000000         0.699983            0.667929            0.431574            
-135.000000         0.677839            0.746690            0.435230            
-132.000000         0.652627            0.825648            0.438887            
-129.000000         0.623742            0.903295            0.443573            
-126.000000         0.591841            0.979118            0.448789            
-123.000000         0.556960            1.053002            0.454368            
-120.000000         0.517502            1.122549            0.459575            
-117.000000         0.475018            1.188091            0.463961            
-114.000000         0.429863            1.249538            0.467837            
-111.000000         0.381812            1.305750            0.471694            
-108.000000         0.330609            1.354273            0.472661            
-105.000000         0.277682            1.397015            0.472974            
-102.000000         0.223350            1.433767            0.472682            
-99.000000          0.167686            1.461703            0.470655            
-96.000000          0.111616            1.481359            0.466446            
-93.000000          0.055634            1.494152            0.461555            
-90.000000          0.000000            1.500000            0.456664            
-87.000000          -0.055634           1.494152            0.445944            
-84.000000          -0.111616           1.481359            0.435224            
-81.000000          -0.167686           1.461703            0.423981            
-78.000000          -0.223350           1.433767            0.411063            
-75.000000          -0.277682           1.397015            0.396815            
-72.000000          -0.330609           1.354273            0.382163            
-69.000000          -0.381812           1.305750            0.367134            
-66.000000          -0.429863           1.249538            0.350438            
-63.000000          -0.475018           1.188091            0.333742            
-60.000000          -0.517502           1.122549            0.316921            
-57.000000          -0.556960           1.053002            0.299849            
-54.000000          -0.591841           0.979118            0.282664            
-51.000000          -0.623742           0.903295            0.265566            
-48.000000          -0.652627           0.825648            0.248599            
-45.000000          -0.677839           0.746690            0.231885            
-42.000000          -0.662483           0.667929            0.215061            
-39.000000          -0.645320           0.590018            0.189138            
-36.000000          -0.626681           0.513346            0.151074            
-33.000000          -0.612495           0.439987            0.111485            
-30.000000          -0.675609           0.345380            0.080045            
-29.393940          -0.695554           0.324094            0.074513            
-28.787878          -0.715991           0.302799            0.068979            
-28.181818          -0.736914           0.281496            0.063443            
-27.575758          -0.774894           0.260904            0.057006            
-26.969696          -0.820552           0.240618            0.050183            
-26.363636          -0.866637           0.220362            0.043359            
-25.757576          -0.913179           0.200124            0.036552            
-25.151516          -0.960298           0.179886            0.029747            
-24.545454          -1.011212           0.159718            0.022980            
-23.939394          -1.059422           0.140450            0.016481            
-23.333334          -1.073479           0.131964            0.013489            
-22.727272          -1.087535           0.123479            0.010496            
-22.121212          -1.101592           0.114994            0.007503            
-21.515152          -1.115648           0.106509            0.004510            
-20.909090          -1.129705           0.098024            0.001518            
-20.303030          -1.143761           0.089539            -0.001475           
-19.696970          -1.151913           0.082492            -0.003475           
-19.090910          -1.154161           0.076881            -0.004483           
-18.484848          -1.156408           0.071271            -0.005491           
-17.878788          -1.157866           0.065808            -0.006426           
-17.272728          -1.156162           0.060936            -0.007071           
-16.666666          -1.154452           0.056065            -0.007716           
-16.060606          -1.152735           0.051195            -0.008360           
-15.454545          -1.149469           0.046816            -0.008966           
-14.848485          -1.145869           0.042498            -0.009567           
-14.242424          -1.142476           0.038189            -0.010169           
-13.636364          -1.130331           0.034145            -0.012159           
-13.030303          -1.112137           0.030254            -0.015066           
-12.424242          -1.093943           0.026358            -0.017967           
-11.818182          -1.064213           0.022854            -0.021761           
-11.212121          -1.007565           0.020264            -0.027675           
-10.606061          -0.950702           0.017674            -0.033621           
-10.000000          -0.894268           0.015084            -0.039566           
-9.393939           -0.816556           0.013770            -0.045036           
-8.787879           -0.738595           0.012454            -0.050550           
-8.181818           -0.660712           0.011156            -0.056040           
-7.575758           -0.582788           0.010361            -0.059654           
-6.969697           -0.504838           0.009769            -0.063091           
-6.363636           -0.426903           0.009177            -0.066594           
-5.757576           -0.349139           0.008608            -0.069697           
-5.151515           -0.271612           0.008078            -0.072470           
-4.545455           -0.194086           0.007595            -0.075242           
-3.939394           -0.116717           0.007151            -0.077924           
-3.333333           -0.040750           0.007042            -0.079791           
-2.727273           0.035216            0.006933            -0.081653           
-2.121212           0.111181            0.006824            -0.083496           
-1.515152           0.186598            0.006807            -0.085124           
-0.909091           0.261836            0.006818            -0.086689           
-0.303030           0.336833            0.006852            -0.088204           
0.303030            0.411681            0.006903            -0.089687           
0.909091            0.486450            0.006970            -0.091138           
1.515152            0.560818            0.007069            -0.092536           
2.121212            0.634747            0.007180            -0.093909           
2.727273            0.708422            0.007320            -0.095227           
3.333333            0.781691            0.007490            -0.096495           
3.939394            0.854626            0.007683            -0.097724           
4.545455            0.926619            0.007946            -0.098852           
5.151515            0.998021            0.008258            -0.099922           
5.757576            1.067969            0.008693            -0.100856           
6.363636            1.136695            0.009205            -0.101669           
6.969697            1.204605            0.009767            -0.102401           
7.575758            1.269858            0.010492            -0.102869           
8.181818            1.334361            0.011242            -0.103264           
8.787879            1.397440            0.012029            -0.103519           
9.393939            1.458919            0.012854            -0.103619           
10.000000           1.519536            0.013701            -0.103636           
10.606061           1.576614            0.014664            -0.103352           
11.212121           1.632113            0.015691            -0.102957           
11.818182           1.684675            0.016830            -0.102357           
12.424242           1.731796            0.018255            -0.101468           
13.030303           1.775913            0.019808            -0.100435           
13.636364           1.807283            0.022104            -0.099013           
14.242424           1.828528            0.025108            -0.097441           
14.848485           1.834802            0.029147            -0.095646           
15.454545           1.815002            0.035268            -0.093934           
16.060606           1.784219            0.042403            -0.092417           
16.666666           1.731261            0.052429            -0.092420           
17.272728           1.678302            0.062454            -0.092428           
17.878788           1.625344            0.072479            -0.092441           
18.484848           1.580541            0.083067            -0.093992           
19.090910           1.537777            0.093795            -0.095886           
19.696970           1.495013            0.104523            -0.097782           
20.303030           1.458920            0.115574            -0.100181           
20.909090           1.429497            0.127052            -0.103085           
21.515152           1.400074            0.138715            -0.106073           
22.121212           1.370651            0.150239            -0.109149           
22.727272           1.340917            0.161206            -0.112228           
23.333334           1.310054            0.172341            -0.115308           
23.939394           1.279192            0.183690            -0.118390           
24.545454           1.249512            0.197548            -0.122568           
25.151516           1.221336            0.211691            -0.126869           
25.757576           1.197369            0.225847            -0.131170           
26.363636           1.173443            0.240023            -0.135472           
26.969696           1.150239            0.254160            -0.139775           
27.575758           1.127564            0.268285            -0.144079           
28.181818           1.103066            0.284402            -0.148720           
28.787878           1.070907            0.305167            -0.154142           
29.393940           1.040388            0.325632            -0.159564           
30.000000           1.011132            0.346823            -0.164986           
33.000000           0.932229            0.439987            -0.189318           
36.000000           0.943473            0.513346            -0.208612           
39.000000           0.954029            0.590018            -0.227713           
42.000000           0.962476            0.667929            -0.245240           
45.000000           0.968341            0.746690            -0.261594           
48.000000           0.932325            0.825648            -0.277860           
51.000000           0.891060            0.903295            -0.293384           
54.000000           0.845487            0.979118            -0.308544           
57.000000           0.795657            1.053002            -0.323426           
60.000000           0.739288            1.122549            -0.338040           
63.000000           0.678597            1.188091            -0.352065           
66.000000           0.614090            1.249538            -0.365797           
69.000000           0.545445            1.305750            -0.379528           
72.000000           0.472299            1.354273            -0.391973           
75.000000           0.396689            1.397015            -0.404127           
78.000000           0.319072            1.433767            -0.416007           
81.000000           0.239551            1.461703            -0.427085           
84.000000           0.159452            1.481359            -0.437155           
87.000000           0.079478            1.494152            -0.446910           
90.000000           0.000000            1.500000            -0.456664           
93.000000           -0.055634           1.494152            -0.461555           
96.000000           -0.111616           1.481359            -0.466446           
99.000000           -0.167686           1.461703            -0.470655           
102.000000          -0.223350           1.433767            -0.472682           
105.000000          -0.277682           1.397015            -0.472974           
108.000000          -0.330609           1.354273            -0.472661           
111.000000          -0.381812           1.305750            -0.471694           
114.000000          -0.429863           1.249538            -0.467837           
117.000000          -0.475018           1.188091            -0.463961           
120.000000          -0.517502           1.122549            -0.459575           
123.000000          -0.556960           1.053002            -0.454368           
126.000000          -0.591841           0.979118            -0.448789           
129.000000          -0.623742           0.903295            -0.443573           
132.000000          -0.652627           0.825648            -0.438887           
135.000000          -0.677839           0.746690            -0.435230           
138.000000          -0.699983           0.667929            -0.431574           
141.000000          -0.720320           0.590018            -0.428452           
144.000000          -0.739181           0.513346            -0.426168           
147.000000          -0.757560           0.439987            -0.424002           
150.000000          -0.715958           0.369099            -0.420151           
153.000000          -0.644362           0.302866            -0.399375           
156.000000          -0.572766           0.241578            -0.376908           
159.000000          -0.501170           0.185502            -0.354440           
162.000000          -0.429575           0.135648            -0.377561           
165.000000          -0.357979           0.092884            -0.423475           
168.000000          -0.286383           0.057109            -0.469390           
171.000000          -0.214787           0.032866            -0.450000           
174.000000          -0.143192           0.027017            -0.300000           
177.000000          -0.071596           0.023397            -0.150000           
180.000000          0.000000            0.022040            0.000000            
