----------------------------------------QBlade Multi RE Polar File--------------------------------------------------
Generated with : QBlade CE v2.0.8.6_beta windows
Archive Format: 310035
Time : 14:38:44
Date : 16.05.2025

----------------------------------------Object Names----------------------------------------------------------------
IEA-15-240-RWT_AeroDyn15_Polar_32.dat                                  POLARNAME          - the polar name
../Airfoils/IEA-15-240-RWT_AF32_Coords.afl                             FOILNAME           - the airfoil name to which the polar(s) belong OR path to airfoil file

----------------------------------------Parameters------------------------------------------------------------------
23.8                                               THICKNESS          - the name of the blade
false                                              ISDECOMPOSED       - is the polar decomposed (imports Cl_Sep, Cl_att and f_st columns) [bool]
REYNOLDS            1.0000E+00          - the list of Reynolds numbers for the imported polars

----------------------------------------Polar Data------------------------------------------------------------------
AOA                 CL                  CD                  CM                  
-180.000000         0.000000            0.012074            0.000000            
-177.000000         0.075635            0.013442            0.120000            
-174.000000         0.151269            0.017093            0.240000            
-171.000000         0.226905            0.022992            0.360001            
-168.000000         0.302543            0.036034            0.393294            
-165.000000         0.378174            0.071365            0.383237            
-162.000000         0.453813            0.114531            0.373179            
-159.000000         0.529439            0.165126            0.374084            
-156.000000         0.605080            0.221929            0.396920            
-153.000000         0.680713            0.283904            0.419755            
-150.000000         0.756347            0.350797            0.440678            
-147.000000         0.798724            0.422329            0.442489            
-144.000000         0.774612            0.496298            0.442443            
-141.000000         0.751051            0.573583            0.442665            
-138.000000         0.726562            0.652094            0.444223            
-135.000000         0.700790            0.731449            0.446111            
-132.000000         0.672547            0.811010            0.447999            
-129.000000         0.640938            0.889424            0.451405            
-126.000000         0.606050            0.966245            0.455590            
-123.000000         0.568494            1.041138            0.460326            
-120.000000         0.526782            1.111718            0.464802            
-117.000000         0.482307            1.178306            0.468708            
-114.000000         0.435395            1.240808            0.472313            
-111.000000         0.385845            1.298089            0.475914            
-108.000000         0.333515            1.347696            0.476765            
-105.000000         0.279701            1.391526            0.476995            
-102.000000         0.224627            1.429372            0.476638            
-99.000000          0.168415            1.458408            0.474568            
-96.000000          0.111968            1.479165            0.470341            
-93.000000          0.055743            1.493057            0.465440            
-90.000000          0.000000            1.500000            0.460539            
-87.000000          -0.055743           1.493057            0.449347            
-84.000000          -0.111968           1.479165            0.438155            
-81.000000          -0.168415           1.458408            0.426458            
-78.000000          -0.224627           1.429372            0.413148            
-75.000000          -0.279701           1.391526            0.398557            
-72.000000          -0.333515           1.347696            0.383585            
-69.000000          -0.385845           1.298089            0.368271            
-66.000000          -0.435395           1.240808            0.351439            
-63.000000          -0.482307           1.178306            0.334607            
-60.000000          -0.526782           1.111718            0.317701            
-57.000000          -0.568494           1.041138            0.300645            
-54.000000          -0.606050           0.966245            0.283521            
-51.000000          -0.640938           0.889424            0.266504            
-48.000000          -0.672547           0.811010            0.249640            
-45.000000          -0.700790           0.731449            0.233074            
-42.000000          -0.689062           0.652094            0.216491            
-39.000000          -0.676722           0.573583            0.188219            
-36.000000          -0.674858           0.496298            0.144415            
-33.000000          -0.681392           0.422329            0.098553            
-30.000000          -0.814497           0.311748            0.065098            
-29.393940          -0.855274           0.285509            0.059569            
-28.787878          -0.896669           0.259202            0.054023            
-28.181818          -0.938641           0.232837            0.048459            
-27.575758          -0.959103           0.216938            0.043782            
-26.969696          -0.970562           0.205527            0.039487            
-26.363636          -0.981281           0.194340            0.035185            
-25.757576          -0.991475           0.183283            0.031008            
-25.151516          -1.002002           0.172227            0.026841            
-24.545454          -1.017849           0.160929            0.022680            
-23.939394          -1.034148           0.149389            0.018378            
-23.333334          -1.042730           0.141075            0.015566            
-22.727272          -1.051312           0.132761            0.012755            
-22.121212          -1.059893           0.124448            0.009943            
-21.515152          -1.068474           0.116134            0.007132            
-20.909090          -1.077056           0.107821            0.004320            
-20.303030          -1.085636           0.099507            0.001509            
-19.696970          -1.089748           0.092411            -0.000496           
-19.090910          -1.089389           0.086531            -0.001696           
-18.484848          -1.089026           0.080652            -0.002896           
-17.878788          -1.087521           0.074975            -0.004000           
-17.272728          -1.081426           0.070114            -0.004723           
-16.666666          -1.075288           0.065256            -0.005445           
-16.060606          -1.069105           0.060401            -0.006167           
-15.454545          -1.060533           0.056120            -0.006468           
-14.848485          -1.050536           0.051946            -0.006723           
-14.242424          -1.042035           0.047837            -0.006978           
-13.636364          -1.036710           0.043844            -0.007354           
-13.030303          -1.031974           0.039751            -0.007746           
-12.424242          -1.027239           0.035627            -0.008092           
-11.818182          -1.016058           0.031593            -0.009542           
-11.212121          -0.989841           0.027765            -0.013853           
-10.606061          -0.962083           0.023937            -0.018388           
-10.000000          -0.937406           0.020109            -0.022924           
-9.393939           -0.857505           0.017443            -0.032927           
-8.787879           -0.775820           0.014767            -0.043245           
-8.181818           -0.694692           0.012221            -0.053394           
-7.575758           -0.613026           0.010984            -0.059289           
-6.969697           -0.531077           0.010257            -0.063945           
-6.363636           -0.449229           0.009531            -0.068703           
-5.757576           -0.368574           0.008978            -0.072703           
-5.151515           -0.289577           0.008688            -0.075608           
-4.545455           -0.210583           0.008415            -0.078514           
-3.939394           -0.131713           0.008168            -0.081360           
-3.333333           -0.053910           0.008082            -0.083670           
-2.727273           0.023887            0.007997            -0.085940           
-2.121212           0.101675            0.007912            -0.088075           
-1.515152           0.178962            0.007887            -0.090070           
-0.909091           0.256043            0.007883            -0.092016           
-0.303030           0.332708            0.007913            -0.093867           
0.303030            0.409324            0.007962            -0.095665           
0.909091            0.485867            0.008030            -0.097408           
1.515152            0.561747            0.008132            -0.099068           
2.121212            0.637289            0.008250            -0.100694           
2.727273            0.712369            0.008404            -0.102236           
3.333333            0.787023            0.008585            -0.103709           
3.939394            0.861324            0.008788            -0.105126           
4.545455            0.934718            0.009051            -0.106416           
5.151515            1.007708            0.009335            -0.107658           
5.757576            1.079791            0.009666            -0.108791           
6.363636            1.150721            0.010072            -0.109788           
6.969697            1.220878            0.010527            -0.110696           
7.575758            1.289384            0.011054            -0.111403           
8.181818            1.356778            0.011645            -0.111986           
8.787879            1.421764            0.012367            -0.112308           
9.393939            1.485083            0.013129            -0.112433           
10.000000           1.547503            0.013913            -0.112452           
10.606061           1.605909            0.014826            -0.112047           
11.212121           1.662534            0.015803            -0.111474           
11.818182           1.715849            0.016898            -0.110590           
12.424242           1.763740            0.018248            -0.109299           
13.030303           1.808763            0.019712            -0.107812           
13.636364           1.843376            0.021731            -0.105889           
14.242424           1.872613            0.024168            -0.103906           
14.848485           1.895350            0.027228            -0.101848           
15.454545           1.896620            0.031730            -0.099788           
16.060606           1.887843            0.037104            -0.097816           
16.666666           1.841956            0.045995            -0.096723           
17.272728           1.796068            0.054886            -0.095663           
17.878788           1.750181            0.063777            -0.094646           
18.484848           1.693747            0.075034            -0.095711           
19.090910           1.634677            0.086884            -0.097290           
19.696970           1.575606            0.098733            -0.098875           
20.303030           1.527804            0.111215            -0.101529           
20.909090           1.491270            0.124346            -0.105267           
21.515152           1.454736            0.137507            -0.109043           
22.121212           1.418203            0.150563            -0.112853           
22.727272           1.381619            0.163262            -0.116680           
23.333334           1.344857            0.176092            -0.120522           
23.939394           1.308094            0.189032            -0.124377           
24.545454           1.278907            0.203337            -0.128704           
25.151516           1.251682            0.217844            -0.133087           
25.757576           1.227895            0.232440            -0.137477           
26.363636           1.204150            0.247187            -0.141873           
26.969696           1.181031            0.261645            -0.146278           
27.575758           1.158306            0.276020            -0.150692           
28.181818           1.136620            0.291050            -0.155155           
28.787878           1.115192            0.307611            -0.159713           
29.393940           1.094880            0.324406            -0.164271           
30.000000           1.075340            0.341659            -0.168829           
33.000000           1.008165            0.422329            -0.190444           
36.000000           0.994885            0.496298            -0.210016           
39.000000           0.997930            0.573583            -0.229355           
42.000000           1.000445            0.652094            -0.246853           
45.000000           1.001128            0.731449            -0.262979           
48.000000           0.960782            0.811010            -0.279090           
51.000000           0.915626            0.889424            -0.294508           
54.000000           0.865786            0.966245            -0.309572           
57.000000           0.812134            1.041138            -0.324368           
60.000000           0.752545            1.111718            -0.338943           
63.000000           0.689010            1.178306            -0.353031           
66.000000           0.621993            1.240808            -0.366875           
69.000000           0.551207            1.298089            -0.380719           
72.000000           0.476450            1.347696            -0.393435           
75.000000           0.399573            1.391526            -0.405896           
78.000000           0.320896            1.429372            -0.418108           
81.000000           0.240593            1.458408            -0.429571           
84.000000           0.159954            1.479165            -0.440090           
87.000000           0.079632            1.493057            -0.450314           
90.000000           0.000000            1.500000            -0.460539           
93.000000           -0.055743           1.493057            -0.465440           
96.000000           -0.111968           1.479165            -0.470341           
99.000000           -0.168415           1.458408            -0.474568           
102.000000          -0.224627           1.429372            -0.476638           
105.000000          -0.279701           1.391526            -0.476995           
108.000000          -0.333515           1.347696            -0.476765           
111.000000          -0.385845           1.298089            -0.475914           
114.000000          -0.435395           1.240808            -0.472313           
117.000000          -0.482307           1.178306            -0.468708           
120.000000          -0.526782           1.111718            -0.464802           
123.000000          -0.568494           1.041138            -0.460326           
126.000000          -0.606050           0.966245            -0.455590           
129.000000          -0.640938           0.889424            -0.451405           
132.000000          -0.672547           0.811010            -0.447999           
135.000000          -0.700790           0.731449            -0.446111           
138.000000          -0.726562           0.652094            -0.444223           
141.000000          -0.751051           0.573583            -0.442665           
144.000000          -0.774612           0.496298            -0.442443           
147.000000          -0.798724           0.422329            -0.442489           
150.000000          -0.756347           0.350797            -0.440678           
153.000000          -0.680713           0.283904            -0.419754           
156.000000          -0.605078           0.221928            -0.396919           
159.000000          -0.529443           0.165129            -0.374086           
162.000000          -0.453808           0.114528            -0.393180           
165.000000          -0.378174           0.071365            -0.433237           
168.000000          -0.302539           0.036032            -0.473295           
171.000000          -0.226904           0.022991            -0.450000           
174.000000          -0.151269           0.017093            -0.300000           
177.000000          -0.075635           0.013442            -0.150000           
180.000000          0.000000            0.012074            0.000000            
