----------------------------------------QBlade Multi RE Polar File--------------------------------------------------
Generated with : QBlade CE v2.0.8.6_beta windows
Archive Format: 310035
Time : 14:38:44
Date : 16.05.2025

----------------------------------------Object Names----------------------------------------------------------------
IEA-15-240-RWT_AeroDyn15_Polar_11.dat                                  POLARNAME          - the polar name
../Airfoils/IEA-15-240-RWT_AF11_Coords.afl                             FOILNAME           - the airfoil name to which the polar(s) belong OR path to airfoil file

----------------------------------------Parameters------------------------------------------------------------------
38.4                                               THICKNESS          - the name of the blade
false                                              ISDECOMPOSED       - is the polar decomposed (imports Cl_Sep, Cl_att and f_st columns) [bool]
REYNOLDS            1.0000E+00          - the list of Reynolds numbers for the imported polars

----------------------------------------Polar Data------------------------------------------------------------------
AOA                 CL                  CD                  CM                  
-180.000000         0.000000            0.041227            0.000000            
-177.000000         0.097367            0.042316            0.119260            
-174.000000         0.194806            0.045219            0.238556            
-171.000000         0.292246            0.049900            0.357852            
-168.000000         0.389674            0.057442            0.401654            
-165.000000         0.487086            0.077716            0.407692            
-162.000000         0.584507            0.113217            0.413714            
-159.000000         0.680160            0.154802            0.424995            
-156.000000         0.771758            0.203339            0.446811            
-153.000000         0.861802            0.256213            0.468599            
-150.000000         0.947782            0.313210            0.487347            
-147.000000         0.982585            0.374583            0.475378            
-144.000000         0.920477            0.438225            0.460029            
-141.000000         0.865791            0.504527            0.444757            
-138.000000         0.813956            0.571952            0.433531            
-135.000000         0.764244            0.640136            0.425222            
-132.000000         0.715849            0.708494            0.416922            
-129.000000         0.667558            0.775882            0.412602            
-126.000000         0.618970            0.841912            0.410452            
-123.000000         0.569898            0.906320            0.409767            
-120.000000         0.519705            0.967081            0.409499            
-117.000000         0.468600            1.024211            0.410212            
-114.000000         0.416764            1.077890            0.411381            
-111.000000         0.364156            1.127154            0.412549            
-108.000000         0.310906            1.169663            0.412510            
-105.000000         0.257520            1.207159            0.412187            
-102.000000         0.204161            1.239593            0.411536            
-99.000000          0.151329            1.264412            0.409640            
-96.000000          0.099606            1.281914            0.406142            
-93.000000          0.049092            1.293607            0.402174            
-90.000000          -0.000000           1.299412            0.398206            
-87.000000          -0.049092           1.293607            0.389322            
-84.000000          -0.099606           1.281914            0.380439            
-81.000000          -0.151329           1.264412            0.371192            
-78.000000          -0.204161           1.239593            0.360698            
-75.000000          -0.257519           1.207159            0.349236            
-72.000000          -0.310906           1.169663            0.337533            
-69.000000          -0.364156           1.127154            0.325638            
-66.000000          -0.416763           1.077890            0.312915            
-63.000000          -0.468598           1.024210            0.300196            
-60.000000          -0.519702           0.967081            0.287561            
-57.000000          -0.569897           0.906320            0.274844            
-54.000000          -0.618969           0.841912            0.262171            
-51.000000          -0.667558           0.775882            0.249585            
-48.000000          -0.715849           0.708494            0.237179            
-45.000000          -0.764244           0.640136            0.225035            
-42.000000          -0.851456           0.571953            0.212890            
-39.000000          -0.940791           0.504528            0.183253            
-36.000000          -1.032977           0.438225            0.128684            
-33.000000          -1.132585           0.374583            0.071961            
-30.000000          -1.239155           0.280360            0.043986            
-29.393940          -1.258452           0.257769            0.040490            
-28.787878          -1.278680           0.235610            0.036994            
-28.181818          -1.299322           0.213470            0.033498            
-27.575758          -1.304819           0.201418            0.030371            
-26.969696          -1.304103           0.193689            0.027403            
-26.363636          -1.303763           0.186551            0.024434            
-25.757576          -1.303770           0.179383            0.021465            
-25.151516          -1.304098           0.172167            0.018496            
-24.545454          -1.299041           0.164907            0.015528            
-23.939394          -1.292212           0.157647            0.012616            
-23.333334          -1.284274           0.150735            0.010220            
-22.727272          -1.276597           0.143826            0.007823            
-22.121212          -1.269196           0.136919            0.005427            
-21.515152          -1.260030           0.130015            0.002925            
-20.909090          -1.249737           0.123113            0.000264            
-20.303030          -1.239444           0.116212            -0.002366           
-19.696970          -1.216162           0.110240            -0.004776           
-19.090910          -1.190781           0.105310            -0.006141           
-18.484848          -1.166103           0.100277            -0.007520           
-17.878788          -1.140470           0.095336            -0.008826           
-17.272728          -1.113672           0.090394            -0.009929           
-16.666666          -1.086889           0.085454            -0.011016           
-16.060606          -1.059706           0.080568            -0.012087           
-15.454545          -1.034990           0.075927            -0.012643           
-14.848485          -1.010399           0.071335            -0.013142           
-14.242424          -0.985573           0.066771            -0.013616           
-13.636364          -0.961888           0.062411            -0.013789           
-13.030303          -0.939085           0.058178            -0.013675           
-12.424242          -0.915856           0.053987            -0.013615           
-11.818182          -0.892536           0.049925            -0.013448           
-11.212121          -0.867557           0.046240            -0.013037           
-10.606061          -0.844610           0.042524            -0.012260           
-10.000000          -0.822122           0.038822            -0.011120           
-9.393939           -0.767663           0.035918            -0.016149           
-8.787879           -0.711401           0.033005            -0.021261           
-8.181818           -0.654211           0.030086            -0.026421           
-7.575758           -0.583577           0.027966            -0.032903           
-6.969697           -0.506458           0.026182            -0.039969           
-6.363636           -0.429062           0.024395            -0.047046           
-5.757576           -0.350744           0.022869            -0.053741           
-5.151515           -0.270437           0.021718            -0.059945           
-4.545455           -0.190346           0.020567            -0.066118           
-3.939394           -0.109699           0.019482            -0.072254           
-3.333333           -0.022312           0.018980            -0.078340           
-2.727273           0.064223            0.018483            -0.084292           
-2.121212           0.150350            0.017985            -0.090134           
-1.515152           0.236758            0.017721            -0.096075           
-0.909091           0.325009            0.017541            -0.101806           
-0.303030           0.414114            0.017458            -0.107013           
0.303030            0.502705            0.017422            -0.111980           
0.909091            0.590783            0.017429            -0.116705           
1.515152            0.677581            0.017517            -0.120988           
2.121212            0.763817            0.017632            -0.125097           
2.727273            0.848845            0.017806            -0.128820           
3.333333            0.933013            0.018022            -0.132318           
3.939394            1.016485            0.018265            -0.135623           
4.545455            1.098396            0.018584            -0.138561           
5.151515            1.179649            0.018934            -0.141345           
5.757576            1.259446            0.019345            -0.143810           
6.363636            1.337795            0.019827            -0.146004           
6.969697            1.415183            0.020346            -0.148016           
7.575758            1.489508            0.021023            -0.149507           
8.181818            1.562387            0.021783            -0.150783           
8.787879            1.632404            0.022702            -0.151655           
9.393939            1.698736            0.023890            -0.152143           
10.000000           1.762979            0.025216            -0.152412           
10.606061           1.818289            0.027372            -0.152061           
11.212121           1.868195            0.030112            -0.151470           
11.818182           1.899946            0.033910            -0.150555           
12.424242           1.923105            0.038928            -0.149584           
13.030303           1.944138            0.044402            -0.148542           
13.636364           1.952168            0.051007            -0.146083           
14.242424           1.964562            0.057310            -0.144097           
14.848485           1.982443            0.063228            -0.142844           
15.454545           1.993342            0.069812            -0.141336           
16.060606           1.999071            0.076926            -0.139780           
16.666666           1.986287            0.086360            -0.138606           
17.272728           1.975099            0.095625            -0.137446           
17.878788           1.960933            0.105034            -0.136287           
18.484848           1.941746            0.115551            -0.136909           
19.090910           1.908752            0.126226            -0.137991           
19.696970           1.867309            0.136897            -0.139087           
20.303030           1.836906            0.147320            -0.140851           
20.909090           1.817620            0.157468            -0.143262           
21.515152           1.798503            0.167504            -0.145687           
22.121212           1.779633            0.177346            -0.148130           
22.727272           1.760931            0.187400            -0.150589           
23.333334           1.742276            0.197959            -0.153052           
23.939394           1.723626            0.208517            -0.155531           
24.545454           1.718823            0.219284            -0.158937           
25.151516           1.713373            0.230147            -0.162481           
25.757576           1.702144            0.241038            -0.166038           
26.363636           1.690905            0.251934            -0.169591           
26.969696           1.679673            0.262826            -0.173141           
27.575758           1.668445            0.273717            -0.176687           
28.181818           1.655336            0.284619            -0.180177           
28.787878           1.644679            0.295548            -0.183544           
29.393940           1.637853            0.306481            -0.186911           
30.000000           1.627989            0.317456            -0.190212           
33.000000           1.553445            0.374922            -0.206478           
36.000000           1.427266            0.438434            -0.222819           
39.000000           1.311683            0.504679            -0.238812           
42.000000           1.200197            0.572065            -0.251880           
45.000000           1.091719            0.640203            -0.262810           
48.000000           1.022619            0.708521            -0.273737           
51.000000           0.953654            0.775882            -0.284095           
54.000000           0.884244            0.841912            -0.294154           
57.000000           0.814141            0.906320            -0.304002           
60.000000           0.742436            0.967081            -0.313858           
63.000000           0.669429            1.024210            -0.323722           
66.000000           0.595378            1.077890            -0.333279           
69.000000           0.520223            1.127154            -0.342865           
72.000000           0.444152            1.169663            -0.352244           
75.000000           0.367886            1.207159            -0.361589           
78.000000           0.291660            1.239593            -0.370852           
81.000000           0.216185            1.264412            -0.379699           
84.000000           0.142295            1.281914            -0.388004           
87.000000           0.070132            1.293607            -0.396155           
90.000000           0.000000            1.299412            -0.404315           
93.000000           -0.049092           1.293607            -0.408431           
96.000000           -0.099606           1.281914            -0.412547           
99.000000           -0.151329           1.264412            -0.416193           
102.000000          -0.204161           1.239593            -0.418225           
105.000000          -0.257520           1.207159            -0.419008           
108.000000          -0.310906           1.169663            -0.419460           
111.000000          -0.364156           1.127154            -0.419620           
114.000000          -0.416763           1.077890            -0.418544           
117.000000          -0.468598           1.024211            -0.417468           
120.000000          -0.519702           0.967081            -0.416830           
123.000000          -0.569897           0.906320            -0.417144           
126.000000          -0.618969           0.841912            -0.417860           
129.000000          -0.667558           0.775882            -0.420027           
132.000000          -0.715849           0.708494            -0.424361           
135.000000          -0.764245           0.640136            -0.432655           
138.000000          -0.813956           0.571952            -0.440981           
141.000000          -0.865791           0.504527            -0.452232           
144.000000          -0.920478           0.438225            -0.467502           
147.000000          -0.982585           0.374583            -0.482893           
150.000000          -0.947782           0.313210            -0.494850           
153.000000          -0.861801           0.256212            -0.477012           
156.000000          -0.771756           0.203337            -0.455437           
159.000000          -0.680165           0.154805            -0.433793           
162.000000          -0.584501           0.113215            -0.440384           
165.000000          -0.487083           0.077716            -0.461046           
168.000000          -0.389666           0.057442            -0.482784           
171.000000          -0.292241           0.049900            -0.447313           
174.000000          -0.194803           0.045219            -0.298194           
177.000000          -0.097365           0.042316            -0.149074           
180.000000          0.000000            0.041227            0.000000            
